LTspice 24.0.12 for Windows
Circuit: * C:\Users\MBX\Desktop\Investigacion\Spice-LK-Model\Osciladores\Fe_test.asc
Start Time: Mon Dec 23 15:51:09 2024
solver = Normal
Maximum thread count: 20
tnom = 27
temp = 27
method = modified trap
WARNING: Less than two connections to node q.  This node is used by b1.
WARNING: Less than two connections to node nc_05.  This node is used by b:u2:cap.
WARNING: Less than two connections to node q1.  This node is used by b2.
Direct Newton iteration for .op point succeeded.
Heightened Def Con from 0.000550084 to 0.000550084
Heightened Def Con from 0.000550084 to 0.000550087
Heightened Def Con from 0.00098558 to 0.00098558
Heightened Def Con from 0.00098558 to 0.00098558
Heightened Def Con from 0.00098558 to 0.00098558
Heightened Def Con from 0.00098558 +to 0.000985581
Total elapsed time: 25.526 seconds.

