Stray ".ends" card: .ends nfet
LTspice 24.0.9 for Windows
Circuit: * C:\Users\nicol\Documents\GitHub\Spice-LK-Model\Oscilador_test\Draft1.asc
Start Time: Sun Jan  5 20:00:13 2025
Ignoring BSIM parameter XL
Error on line 1217 : .model nfet nmos level=49  bulkmod=1  lmin=1e-8 lmax=3e-8  version=105.03 igcmod=1 igbmod=1  gidlmod=0 iimod=0 geomod=1  rdsmod=1 rgatemod=0 rgeomod=1  shmod=0 nqsmod=0 coremod=0  cgeomod=2 capmod=0 tnom=300.15  eot=8.4e-10 eotbox=1.4e-7 tfin=6.5e-9 toxp=1.15e-9  nbody=1e22 phig=4.6136 epsrox=3.9 epsrsub=11.9  easub=4.05 ni0sub=1.1e16 bg0sub=1.12 nc0sub=2.86e25  nsd=3e26 ngate=0 nfin=1 d=4e-8  nseg=5 l=1.1e-8  xl=0 lint=-2.5e-10 ll=0 lln=1  llc=0 dlc=0 dlbin=0 hfin=1.8e-8  fech=1 deltaw=0 deltawcv=0 fechcv=1  hepi=8e-9  tsili=7e-9 rhoc=4e-13 cratio=0.5 deltaprsd=0  sdterm=0 ldg=2e-9 epsrsp=3.9 tgate=7.5e-9  tmask=0 asiliend=0 arsdend=0 prsdend=0  nsde=9e25 rgeoa=1 rgeob=0 rgeoc=0  rgeod=0 rgeoe=0 cgeoa=1 cgeob=0  cgeoc=0 cgeod=0 cgeoe=1  cit=1.3e-5  cdsc=0.0252 cdscd=0.007 dvt0=0.01 dvt1=0.69  phin=0.05 eta0=0.39 dsub=0.9 k1rsce=0  lpe0=5e-9 dvtshift=0 qmfactor=0 qmtceniv=0  qmtcencv=0 etaqm=0.54 qm0=0.001143 pqm=0.66  qm0acc=0.001 pqmacc=0.66 delvfbacc=0  u0=0.065  etamob=2 up=0 lpa=1 ua=0.3  aua=0 bua=1e-7 eu=1.8 ud=0  aud=0 bud=5e-8 ucs=0 rdswmin=0  rdsw=100 ardsw=0 brdsw=1e-7 prwg=0  wr=1 rswmin=0 rsw=0 arsw=0  brsw=1e-7 rdwmin=0 rdw=0 ardw=0  brdw=1e-7 rgfin=0.001 rgext=0 rshs=0  vsat=1.6e5  deltavsat=1 ksativ=0.8 avsat=0 avsat1=0  bvsat=1e-7 bvsat1=1e-7 mexp=3 amexp=0  bmexp=1 ptwg=0 aptwg=0 bptwg=1e-7  pclm=0.2 pclmcv=0.013 apclm=0 bpclm=1e-7  pclmg=0 pclmgcv=0 vasat=0.6 vasatcv=0.2  pdibl1=1.3 pdibl2=0.0002 drout=1.06 pvag=1  fpitch=2.2e-8  rth0=0.01 cth0=1e-5 wth0=0  aigbinv=0.0111  bigbinv=0.03 cigbinv=0.006 eigbinv=1.1 nigbinv=1.2  aigbacc=0.0149 bigbacc=0.000949 cigbacc=0.075 nigbacc=3  aigc=0.0136  bigc=0.00171 cigc=0.075 nigc=1  dlcigs=0 dlcigd=0 aigs=0.0136 aigd=0.0136  bigs=0.00171 bigd=0.00171 cigs=0.075 cigd=0.075  poxedge=1  agidl=5.729e-12 agisl=5.729e-12 bgidl=3e8 bgisl=3e8  egidl=0.1 egisl=0.1 alpha0=0  alpha1=0 alphaii=0 betaii0=0 betaii1=0  betaii2=0.1 esatii=1e7 lii=5e-10 sii0=0.5  sii1=0.1 sii2=0 siid=0 beta0=30  lintigen=0  ntgen=1 aigen=0 bigen=0  xrcrg1=12  xrcrg2=1  jss=1e-4 jsd=1e-4 jsws=0 jswgs=0  njs=1 njd=1 ijthsfwd=0.1 ijthdfwd=0.1  ijthsrev=0.1 ijthdrev=0.1 bvs=10 bvd=10  xjbvs=1 xjbvd=1 cjs=5e-4  cjd=5e-4 cjsws=5e-10 cjswgs=0 pbs=1  pbd=1 pbsws=1 mjs=0.5 mjd=0.5  mjsws2=0.33 mjswd2=0.33 mjsws=0.33 sjs=0  sjsws=0 sjswgs=0 mjs2=0.125 mjd2=0.125  cgsp=0 cgdp=0 cdsp=0 cfs=2.56e-11  cfd=2.65e-11 covs=2.5e-11 covd=2.5e-11 cgsl=0  ckappas=0.6 cgbo=0 cgbl=0  tbgasub=0.000702 tbgbsub=1108 kt1=0  kt1l=0 ute=0  utl=-0.0015 ua1=0.001032 ud1=0 ucste=-0.00478  at=-0.00156  ptwgt=0.004 tmexp=0 prt=0.001  iit=-0.5 tii=0 tgidl=-0.0003 igt=2.5  tcj=0 tcjsw=0 tcjswg=0 tpb=0  tpbsw=0 tpbswg=0 xtis=3 xtid=3  xtss=0.02 xtssws=0.02 xtsswgs=0.02 tnjts=0  tnjtssw=0 tnjtsswg=0  ef=1  lintnoi=0 em=4.1e7 noia=6.25e39 noib=3.125e24  noic=8.75e7 ntnoi=1
	* Unrecognized parameter "bulkmod" -- ignored
Error on line 1217 : .model nfet nmos level=49  bulkmod=1  lmin=1e-8 lmax=3e-8  version=105.03 igcmod=1 igbmod=1  gidlmod=0 iimod=0 geomod=1  rdsmod=1 rgatemod=0 rgeomod=1  shmod=0 nqsmod=0 coremod=0  cgeomod=2 capmod=0 tnom=300.15  eot=8.4e-10 eotbox=1.4e-7 tfin=6.5e-9 toxp=1.15e-9  nbody=1e22 phig=4.6136 epsrox=3.9 epsrsub=11.9  easub=4.05 ni0sub=1.1e16 bg0sub=1.12 nc0sub=2.86e25  nsd=3e26 ngate=0 nfin=1 d=4e-8  nseg=5 l=1.1e-8  xl=0 lint=-2.5e-10 ll=0 lln=1  llc=0 dlc=0 dlbin=0 hfin=1.8e-8  fech=1 deltaw=0 deltawcv=0 fechcv=1  hepi=8e-9  tsili=7e-9 rhoc=4e-13 cratio=0.5 deltaprsd=0  sdterm=0 ldg=2e-9 epsrsp=3.9 tgate=7.5e-9  tmask=0 asiliend=0 arsdend=0 prsdend=0  nsde=9e25 rgeoa=1 rgeob=0 rgeoc=0  rgeod=0 rgeoe=0 cgeoa=1 cgeob=0  cgeoc=0 cgeod=0 cgeoe=1  cit=1.3e-5  cdsc=0.0252 cdscd=0.007 dvt0=0.01 dvt1=0.69  phin=0.05 eta0=0.39 dsub=0.9 k1rsce=0  lpe0=5e-9 dvtshift=0 qmfactor=0 qmtceniv=0  qmtcencv=0 etaqm=0.54 qm0=0.001143 pqm=0.66  qm0acc=0.001 pqmacc=0.66 delvfbacc=0  u0=0.065  etamob=2 up=0 lpa=1 ua=0.3  aua=0 bua=1e-7 eu=1.8 ud=0  aud=0 bud=5e-8 ucs=0 rdswmin=0  rdsw=100 ardsw=0 brdsw=1e-7 prwg=0  wr=1 rswmin=0 rsw=0 arsw=0  brsw=1e-7 rdwmin=0 rdw=0 ardw=0  brdw=1e-7 rgfin=0.001 rgext=0 rshs=0  vsat=1.6e5  deltavsat=1 ksativ=0.8 avsat=0 avsat1=0  bvsat=1e-7 bvsat1=1e-7 mexp=3 amexp=0  bmexp=1 ptwg=0 aptwg=0 bptwg=1e-7  pclm=0.2 pclmcv=0.013 apclm=0 bpclm=1e-7  pclmg=0 pclmgcv=0 vasat=0.6 vasatcv=0.2  pdibl1=1.3 pdibl2=0.0002 drout=1.06 pvag=1  fpitch=2.2e-8  rth0=0.01 cth0=1e-5 wth0=0  aigbinv=0.0111  bigbinv=0.03 cigbinv=0.006 eigbinv=1.1 nigbinv=1.2  aigbacc=0.0149 bigbacc=0.000949 cigbacc=0.075 nigbacc=3  aigc=0.0136  bigc=0.00171 cigc=0.075 nigc=1  dlcigs=0 dlcigd=0 aigs=0.0136 aigd=0.0136  bigs=0.00171 bigd=0.00171 cigs=0.075 cigd=0.075  poxedge=1  agidl=5.729e-12 agisl=5.729e-12 bgidl=3e8 bgisl=3e8  egidl=0.1 egisl=0.1 alpha0=0  alpha1=0 alphaii=0 betaii0=0 betaii1=0  betaii2=0.1 esatii=1e7 lii=5e-10 sii0=0.5  sii1=0.1 sii2=0 siid=0 beta0=30  lintigen=0  ntgen=1 aigen=0 bigen=0  xrcrg1=12  xrcrg2=1  jss=1e-4 jsd=1e-4 jsws=0 jswgs=0  njs=1 njd=1 ijthsfwd=0.1 ijthdfwd=0.1  ijthsrev=0.1 ijthdrev=0.1 bvs=10 bvd=10  xjbvs=1 xjbvd=1 cjs=5e-4  cjd=5e-4 cjsws=5e-10 cjswgs=0 pbs=1  pbd=1 pbsws=1 mjs=0.5 mjd=0.5  mjsws2=0.33 mjswd2=0.33 mjsws=0.33 sjs=0  sjsws=0 sjswgs=0 mjs2=0.125 mjd2=0.125  cgsp=0 cgdp=0 cdsp=0 cfs=2.56e-11  cfd=2.65e-11 covs=2.5e-11 covd=2.5e-11 cgsl=0  ckappas=0.6 cgbo=0 cgbl=0  tbgasub=0.000702 tbgbsub=1108 kt1=0  kt1l=0 ute=0  utl=-0.0015 ua1=0.001032 ud1=0 ucste=-0.00478  at=-0.00156  ptwgt=0.004 tmexp=0 prt=0.001  iit=-0.5 tii=0 tgidl=-0.0003 igt=2.5  tcj=0 tcjsw=0 tcjswg=0 tpb=0  tpbsw=0 tpbswg=0 xtis=3 xtid=3  xtss=0.02 xtssws=0.02 xtsswgs=0.02 tnjts=0  tnjtssw=0 tnjtsswg=0  ef=1  lintnoi=0 em=4.1e7 noia=6.25e39 noib=3.125e24  noic=8.75e7 ntnoi=1
	* Unrecognized parameter "igcmod" -- ignored
Error on line 1217 : .model nfet nmos level=49  bulkmod=1  lmin=1e-8 lmax=3e-8  version=105.03 igcmod=1 igbmod=1  gidlmod=0 iimod=0 geomod=1  rdsmod=1 rgatemod=0 rgeomod=1  shmod=0 nqsmod=0 coremod=0  cgeomod=2 capmod=0 tnom=300.15  eot=8.4e-10 eotbox=1.4e-7 tfin=6.5e-9 toxp=1.15e-9  nbody=1e22 phig=4.6136 epsrox=3.9 epsrsub=11.9  easub=4.05 ni0sub=1.1e16 bg0sub=1.12 nc0sub=2.86e25  nsd=3e26 ngate=0 nfin=1 d=4e-8  nseg=5 l=1.1e-8  xl=0 lint=-2.5e-10 ll=0 lln=1  llc=0 dlc=0 dlbin=0 hfin=1.8e-8  fech=1 deltaw=0 deltawcv=0 fechcv=1  hepi=8e-9  tsili=7e-9 rhoc=4e-13 cratio=0.5 deltaprsd=0  sdterm=0 ldg=2e-9 epsrsp=3.9 tgate=7.5e-9  tmask=0 asiliend=0 arsdend=0 prsdend=0  nsde=9e25 rgeoa=1 rgeob=0 rgeoc=0  rgeod=0 rgeoe=0 cgeoa=1 cgeob=0  cgeoc=0 cgeod=0 cgeoe=1  cit=1.3e-5  cdsc=0.0252 cdscd=0.007 dvt0=0.01 dvt1=0.69  phin=0.05 eta0=0.39 dsub=0.9 k1rsce=0  lpe0=5e-9 dvtshift=0 qmfactor=0 qmtceniv=0  qmtcencv=0 etaqm=0.54 qm0=0.001143 pqm=0.66  qm0acc=0.001 pqmacc=0.66 delvfbacc=0  u0=0.065  etamob=2 up=0 lpa=1 ua=0.3  aua=0 bua=1e-7 eu=1.8 ud=0  aud=0 bud=5e-8 ucs=0 rdswmin=0  rdsw=100 ardsw=0 brdsw=1e-7 prwg=0  wr=1 rswmin=0 rsw=0 arsw=0  brsw=1e-7 rdwmin=0 rdw=0 ardw=0  brdw=1e-7 rgfin=0.001 rgext=0 rshs=0  vsat=1.6e5  deltavsat=1 ksativ=0.8 avsat=0 avsat1=0  bvsat=1e-7 bvsat1=1e-7 mexp=3 amexp=0  bmexp=1 ptwg=0 aptwg=0 bptwg=1e-7  pclm=0.2 pclmcv=0.013 apclm=0 bpclm=1e-7  pclmg=0 pclmgcv=0 vasat=0.6 vasatcv=0.2  pdibl1=1.3 pdibl2=0.0002 drout=1.06 pvag=1  fpitch=2.2e-8  rth0=0.01 cth0=1e-5 wth0=0  aigbinv=0.0111  bigbinv=0.03 cigbinv=0.006 eigbinv=1.1 nigbinv=1.2  aigbacc=0.0149 bigbacc=0.000949 cigbacc=0.075 nigbacc=3  aigc=0.0136  bigc=0.00171 cigc=0.075 nigc=1  dlcigs=0 dlcigd=0 aigs=0.0136 aigd=0.0136  bigs=0.00171 bigd=0.00171 cigs=0.075 cigd=0.075  poxedge=1  agidl=5.729e-12 agisl=5.729e-12 bgidl=3e8 bgisl=3e8  egidl=0.1 egisl=0.1 alpha0=0  alpha1=0 alphaii=0 betaii0=0 betaii1=0  betaii2=0.1 esatii=1e7 lii=5e-10 sii0=0.5  sii1=0.1 sii2=0 siid=0 beta0=30  lintigen=0  ntgen=1 aigen=0 bigen=0  xrcrg1=12  xrcrg2=1  jss=1e-4 jsd=1e-4 jsws=0 jswgs=0  njs=1 njd=1 ijthsfwd=0.1 ijthdfwd=0.1  ijthsrev=0.1 ijthdrev=0.1 bvs=10 bvd=10  xjbvs=1 xjbvd=1 cjs=5e-4  cjd=5e-4 cjsws=5e-10 cjswgs=0 pbs=1  pbd=1 pbsws=1 mjs=0.5 mjd=0.5  mjsws2=0.33 mjswd2=0.33 mjsws=0.33 sjs=0  sjsws=0 sjswgs=0 mjs2=0.125 mjd2=0.125  cgsp=0 cgdp=0 cdsp=0 cfs=2.56e-11  cfd=2.65e-11 covs=2.5e-11 covd=2.5e-11 cgsl=0  ckappas=0.6 cgbo=0 cgbl=0  tbgasub=0.000702 tbgbsub=1108 kt1=0  kt1l=0 ute=0  utl=-0.0015 ua1=0.001032 ud1=0 ucste=-0.00478  at=-0.00156  ptwgt=0.004 tmexp=0 prt=0.001  iit=-0.5 tii=0 tgidl=-0.0003 igt=2.5  tcj=0 tcjsw=0 tcjswg=0 tpb=0  tpbsw=0 tpbswg=0 xtis=3 xtid=3  xtss=0.02 xtssws=0.02 xtsswgs=0.02 tnjts=0  tnjtssw=0 tnjtsswg=0  ef=1  lintnoi=0 em=4.1e7 noia=6.25e39 noib=3.125e24  noic=8.75e7 ntnoi=1
	* Unrecognized parameter "igbmod" -- ignored
Error on line 1217 : .model nfet nmos level=49  bulkmod=1  lmin=1e-8 lmax=3e-8  version=105.03 igcmod=1 igbmod=1  gidlmod=0 iimod=0 geomod=1  rdsmod=1 rgatemod=0 rgeomod=1  shmod=0 nqsmod=0 coremod=0  cgeomod=2 capmod=0 tnom=300.15  eot=8.4e-10 eotbox=1.4e-7 tfin=6.5e-9 toxp=1.15e-9  nbody=1e22 phig=4.6136 epsrox=3.9 epsrsub=11.9  easub=4.05 ni0sub=1.1e16 bg0sub=1.12 nc0sub=2.86e25  nsd=3e26 ngate=0 nfin=1 d=4e-8  nseg=5 l=1.1e-8  xl=0 lint=-2.5e-10 ll=0 lln=1  llc=0 dlc=0 dlbin=0 hfin=1.8e-8  fech=1 deltaw=0 deltawcv=0 fechcv=1  hepi=8e-9  tsili=7e-9 rhoc=4e-13 cratio=0.5 deltaprsd=0  sdterm=0 ldg=2e-9 epsrsp=3.9 tgate=7.5e-9  tmask=0 asiliend=0 arsdend=0 prsdend=0  nsde=9e25 rgeoa=1 rgeob=0 rgeoc=0  rgeod=0 rgeoe=0 cgeoa=1 cgeob=0  cgeoc=0 cgeod=0 cgeoe=1  cit=1.3e-5  cdsc=0.0252 cdscd=0.007 dvt0=0.01 dvt1=0.69  phin=0.05 eta0=0.39 dsub=0.9 k1rsce=0  lpe0=5e-9 dvtshift=0 qmfactor=0 qmtceniv=0  qmtcencv=0 etaqm=0.54 qm0=0.001143 pqm=0.66  qm0acc=0.001 pqmacc=0.66 delvfbacc=0  u0=0.065  etamob=2 up=0 lpa=1 ua=0.3  aua=0 bua=1e-7 eu=1.8 ud=0  aud=0 bud=5e-8 ucs=0 rdswmin=0  rdsw=100 ardsw=0 brdsw=1e-7 prwg=0  wr=1 rswmin=0 rsw=0 arsw=0  brsw=1e-7 rdwmin=0 rdw=0 ardw=0  brdw=1e-7 rgfin=0.001 rgext=0 rshs=0  vsat=1.6e5  deltavsat=1 ksativ=0.8 avsat=0 avsat1=0  bvsat=1e-7 bvsat1=1e-7 mexp=3 amexp=0  bmexp=1 ptwg=0 aptwg=0 bptwg=1e-7  pclm=0.2 pclmcv=0.013 apclm=0 bpclm=1e-7  pclmg=0 pclmgcv=0 vasat=0.6 vasatcv=0.2  pdibl1=1.3 pdibl2=0.0002 drout=1.06 pvag=1  fpitch=2.2e-8  rth0=0.01 cth0=1e-5 wth0=0  aigbinv=0.0111  bigbinv=0.03 cigbinv=0.006 eigbinv=1.1 nigbinv=1.2  aigbacc=0.0149 bigbacc=0.000949 cigbacc=0.075 nigbacc=3  aigc=0.0136  bigc=0.00171 cigc=0.075 nigc=1  dlcigs=0 dlcigd=0 aigs=0.0136 aigd=0.0136  bigs=0.00171 bigd=0.00171 cigs=0.075 cigd=0.075  poxedge=1  agidl=5.729e-12 agisl=5.729e-12 bgidl=3e8 bgisl=3e8  egidl=0.1 egisl=0.1 alpha0=0  alpha1=0 alphaii=0 betaii0=0 betaii1=0  betaii2=0.1 esatii=1e7 lii=5e-10 sii0=0.5  sii1=0.1 sii2=0 siid=0 beta0=30  lintigen=0  ntgen=1 aigen=0 bigen=0  xrcrg1=12  xrcrg2=1  jss=1e-4 jsd=1e-4 jsws=0 jswgs=0  njs=1 njd=1 ijthsfwd=0.1 ijthdfwd=0.1  ijthsrev=0.1 ijthdrev=0.1 bvs=10 bvd=10  xjbvs=1 xjbvd=1 cjs=5e-4  cjd=5e-4 cjsws=5e-10 cjswgs=0 pbs=1  pbd=1 pbsws=1 mjs=0.5 mjd=0.5  mjsws2=0.33 mjswd2=0.33 mjsws=0.33 sjs=0  sjsws=0 sjswgs=0 mjs2=0.125 mjd2=0.125  cgsp=0 cgdp=0 cdsp=0 cfs=2.56e-11  cfd=2.65e-11 covs=2.5e-11 covd=2.5e-11 cgsl=0  ckappas=0.6 cgbo=0 cgbl=0  tbgasub=0.000702 tbgbsub=1108 kt1=0  kt1l=0 ute=0  utl=-0.0015 ua1=0.001032 ud1=0 ucste=-0.00478  at=-0.00156  ptwgt=0.004 tmexp=0 prt=0.001  iit=-0.5 tii=0 tgidl=-0.0003 igt=2.5  tcj=0 tcjsw=0 tcjswg=0 tpb=0  tpbsw=0 tpbswg=0 xtis=3 xtid=3  xtss=0.02 xtssws=0.02 xtsswgs=0.02 tnjts=0  tnjtssw=0 tnjtsswg=0  ef=1  lintnoi=0 em=4.1e7 noia=6.25e39 noib=3.125e24  noic=8.75e7 ntnoi=1
	* Unrecognized parameter "gidlmod" -- ignored
Error on line 1217 : .model nfet nmos level=49  bulkmod=1  lmin=1e-8 lmax=3e-8  version=105.03 igcmod=1 igbmod=1  gidlmod=0 iimod=0 geomod=1  rdsmod=1 rgatemod=0 rgeomod=1  shmod=0 nqsmod=0 coremod=0  cgeomod=2 capmod=0 tnom=300.15  eot=8.4e-10 eotbox=1.4e-7 tfin=6.5e-9 toxp=1.15e-9  nbody=1e22 phig=4.6136 epsrox=3.9 epsrsub=11.9  easub=4.05 ni0sub=1.1e16 bg0sub=1.12 nc0sub=2.86e25  nsd=3e26 ngate=0 nfin=1 d=4e-8  nseg=5 l=1.1e-8  xl=0 lint=-2.5e-10 ll=0 lln=1  llc=0 dlc=0 dlbin=0 hfin=1.8e-8  fech=1 deltaw=0 deltawcv=0 fechcv=1  hepi=8e-9  tsili=7e-9 rhoc=4e-13 cratio=0.5 deltaprsd=0  sdterm=0 ldg=2e-9 epsrsp=3.9 tgate=7.5e-9  tmask=0 asiliend=0 arsdend=0 prsdend=0  nsde=9e25 rgeoa=1 rgeob=0 rgeoc=0  rgeod=0 rgeoe=0 cgeoa=1 cgeob=0  cgeoc=0 cgeod=0 cgeoe=1  cit=1.3e-5  cdsc=0.0252 cdscd=0.007 dvt0=0.01 dvt1=0.69  phin=0.05 eta0=0.39 dsub=0.9 k1rsce=0  lpe0=5e-9 dvtshift=0 qmfactor=0 qmtceniv=0  qmtcencv=0 etaqm=0.54 qm0=0.001143 pqm=0.66  qm0acc=0.001 pqmacc=0.66 delvfbacc=0  u0=0.065  etamob=2 up=0 lpa=1 ua=0.3  aua=0 bua=1e-7 eu=1.8 ud=0  aud=0 bud=5e-8 ucs=0 rdswmin=0  rdsw=100 ardsw=0 brdsw=1e-7 prwg=0  wr=1 rswmin=0 rsw=0 arsw=0  brsw=1e-7 rdwmin=0 rdw=0 ardw=0  brdw=1e-7 rgfin=0.001 rgext=0 rshs=0  vsat=1.6e5  deltavsat=1 ksativ=0.8 avsat=0 avsat1=0  bvsat=1e-7 bvsat1=1e-7 mexp=3 amexp=0  bmexp=1 ptwg=0 aptwg=0 bptwg=1e-7  pclm=0.2 pclmcv=0.013 apclm=0 bpclm=1e-7  pclmg=0 pclmgcv=0 vasat=0.6 vasatcv=0.2  pdibl1=1.3 pdibl2=0.0002 drout=1.06 pvag=1  fpitch=2.2e-8  rth0=0.01 cth0=1e-5 wth0=0  aigbinv=0.0111  bigbinv=0.03 cigbinv=0.006 eigbinv=1.1 nigbinv=1.2  aigbacc=0.0149 bigbacc=0.000949 cigbacc=0.075 nigbacc=3  aigc=0.0136  bigc=0.00171 cigc=0.075 nigc=1  dlcigs=0 dlcigd=0 aigs=0.0136 aigd=0.0136  bigs=0.00171 bigd=0.00171 cigs=0.075 cigd=0.075  poxedge=1  agidl=5.729e-12 agisl=5.729e-12 bgidl=3e8 bgisl=3e8  egidl=0.1 egisl=0.1 alpha0=0  alpha1=0 alphaii=0 betaii0=0 betaii1=0  betaii2=0.1 esatii=1e7 lii=5e-10 sii0=0.5  sii1=0.1 sii2=0 siid=0 beta0=30  lintigen=0  ntgen=1 aigen=0 bigen=0  xrcrg1=12  xrcrg2=1  jss=1e-4 jsd=1e-4 jsws=0 jswgs=0  njs=1 njd=1 ijthsfwd=0.1 ijthdfwd=0.1  ijthsrev=0.1 ijthdrev=0.1 bvs=10 bvd=10  xjbvs=1 xjbvd=1 cjs=5e-4  cjd=5e-4 cjsws=5e-10 cjswgs=0 pbs=1  pbd=1 pbsws=1 mjs=0.5 mjd=0.5  mjsws2=0.33 mjswd2=0.33 mjsws=0.33 sjs=0  sjsws=0 sjswgs=0 mjs2=0.125 mjd2=0.125  cgsp=0 cgdp=0 cdsp=0 cfs=2.56e-11  cfd=2.65e-11 covs=2.5e-11 covd=2.5e-11 cgsl=0  ckappas=0.6 cgbo=0 cgbl=0  tbgasub=0.000702 tbgbsub=1108 kt1=0  kt1l=0 ute=0  utl=-0.0015 ua1=0.001032 ud1=0 ucste=-0.00478  at=-0.00156  ptwgt=0.004 tmexp=0 prt=0.001  iit=-0.5 tii=0 tgidl=-0.0003 igt=2.5  tcj=0 tcjsw=0 tcjswg=0 tpb=0  tpbsw=0 tpbswg=0 xtis=3 xtid=3  xtss=0.02 xtssws=0.02 xtsswgs=0.02 tnjts=0  tnjtssw=0 tnjtsswg=0  ef=1  lintnoi=0 em=4.1e7 noia=6.25e39 noib=3.125e24  noic=8.75e7 ntnoi=1
	* Unrecognized parameter "iimod" -- ignored
Error on line 1217 : .model nfet nmos level=49  bulkmod=1  lmin=1e-8 lmax=3e-8  version=105.03 igcmod=1 igbmod=1  gidlmod=0 iimod=0 geomod=1  rdsmod=1 rgatemod=0 rgeomod=1  shmod=0 nqsmod=0 coremod=0  cgeomod=2 capmod=0 tnom=300.15  eot=8.4e-10 eotbox=1.4e-7 tfin=6.5e-9 toxp=1.15e-9  nbody=1e22 phig=4.6136 epsrox=3.9 epsrsub=11.9  easub=4.05 ni0sub=1.1e16 bg0sub=1.12 nc0sub=2.86e25  nsd=3e26 ngate=0 nfin=1 d=4e-8  nseg=5 l=1.1e-8  xl=0 lint=-2.5e-10 ll=0 lln=1  llc=0 dlc=0 dlbin=0 hfin=1.8e-8  fech=1 deltaw=0 deltawcv=0 fechcv=1  hepi=8e-9  tsili=7e-9 rhoc=4e-13 cratio=0.5 deltaprsd=0  sdterm=0 ldg=2e-9 epsrsp=3.9 tgate=7.5e-9  tmask=0 asiliend=0 arsdend=0 prsdend=0  nsde=9e25 rgeoa=1 rgeob=0 rgeoc=0  rgeod=0 rgeoe=0 cgeoa=1 cgeob=0  cgeoc=0 cgeod=0 cgeoe=1  cit=1.3e-5  cdsc=0.0252 cdscd=0.007 dvt0=0.01 dvt1=0.69  phin=0.05 eta0=0.39 dsub=0.9 k1rsce=0  lpe0=5e-9 dvtshift=0 qmfactor=0 qmtceniv=0  qmtcencv=0 etaqm=0.54 qm0=0.001143 pqm=0.66  qm0acc=0.001 pqmacc=0.66 delvfbacc=0  u0=0.065  etamob=2 up=0 lpa=1 ua=0.3  aua=0 bua=1e-7 eu=1.8 ud=0  aud=0 bud=5e-8 ucs=0 rdswmin=0  rdsw=100 ardsw=0 brdsw=1e-7 prwg=0  wr=1 rswmin=0 rsw=0 arsw=0  brsw=1e-7 rdwmin=0 rdw=0 ardw=0  brdw=1e-7 rgfin=0.001 rgext=0 rshs=0  vsat=1.6e5  deltavsat=1 ksativ=0.8 avsat=0 avsat1=0  bvsat=1e-7 bvsat1=1e-7 mexp=3 amexp=0  bmexp=1 ptwg=0 aptwg=0 bptwg=1e-7  pclm=0.2 pclmcv=0.013 apclm=0 bpclm=1e-7  pclmg=0 pclmgcv=0 vasat=0.6 vasatcv=0.2  pdibl1=1.3 pdibl2=0.0002 drout=1.06 pvag=1  fpitch=2.2e-8  rth0=0.01 cth0=1e-5 wth0=0  aigbinv=0.0111  bigbinv=0.03 cigbinv=0.006 eigbinv=1.1 nigbinv=1.2  aigbacc=0.0149 bigbacc=0.000949 cigbacc=0.075 nigbacc=3  aigc=0.0136  bigc=0.00171 cigc=0.075 nigc=1  dlcigs=0 dlcigd=0 aigs=0.0136 aigd=0.0136  bigs=0.00171 bigd=0.00171 cigs=0.075 cigd=0.075  poxedge=1  agidl=5.729e-12 agisl=5.729e-12 bgidl=3e8 bgisl=3e8  egidl=0.1 egisl=0.1 alpha0=0  alpha1=0 alphaii=0 betaii0=0 betaii1=0  betaii2=0.1 esatii=1e7 lii=5e-10 sii0=0.5  sii1=0.1 sii2=0 siid=0 beta0=30  lintigen=0  ntgen=1 aigen=0 bigen=0  xrcrg1=12  xrcrg2=1  jss=1e-4 jsd=1e-4 jsws=0 jswgs=0  njs=1 njd=1 ijthsfwd=0.1 ijthdfwd=0.1  ijthsrev=0.1 ijthdrev=0.1 bvs=10 bvd=10  xjbvs=1 xjbvd=1 cjs=5e-4  cjd=5e-4 cjsws=5e-10 cjswgs=0 pbs=1  pbd=1 pbsws=1 mjs=0.5 mjd=0.5  mjsws2=0.33 mjswd2=0.33 mjsws=0.33 sjs=0  sjsws=0 sjswgs=0 mjs2=0.125 mjd2=0.125  cgsp=0 cgdp=0 cdsp=0 cfs=2.56e-11  cfd=2.65e-11 covs=2.5e-11 covd=2.5e-11 cgsl=0  ckappas=0.6 cgbo=0 cgbl=0  tbgasub=0.000702 tbgbsub=1108 kt1=0  kt1l=0 ute=0  utl=-0.0015 ua1=0.001032 ud1=0 ucste=-0.00478  at=-0.00156  ptwgt=0.004 tmexp=0 prt=0.001  iit=-0.5 tii=0 tgidl=-0.0003 igt=2.5  tcj=0 tcjsw=0 tcjswg=0 tpb=0  tpbsw=0 tpbswg=0 xtis=3 xtid=3  xtss=0.02 xtssws=0.02 xtsswgs=0.02 tnjts=0  tnjtssw=0 tnjtsswg=0  ef=1  lintnoi=0 em=4.1e7 noia=6.25e39 noib=3.125e24  noic=8.75e7 ntnoi=1
	* Unrecognized parameter "geomod" -- ignored
Error on line 1217 : .model nfet nmos level=49  bulkmod=1  lmin=1e-8 lmax=3e-8  version=105.03 igcmod=1 igbmod=1  gidlmod=0 iimod=0 geomod=1  rdsmod=1 rgatemod=0 rgeomod=1  shmod=0 nqsmod=0 coremod=0  cgeomod=2 capmod=0 tnom=300.15  eot=8.4e-10 eotbox=1.4e-7 tfin=6.5e-9 toxp=1.15e-9  nbody=1e22 phig=4.6136 epsrox=3.9 epsrsub=11.9  easub=4.05 ni0sub=1.1e16 bg0sub=1.12 nc0sub=2.86e25  nsd=3e26 ngate=0 nfin=1 d=4e-8  nseg=5 l=1.1e-8  xl=0 lint=-2.5e-10 ll=0 lln=1  llc=0 dlc=0 dlbin=0 hfin=1.8e-8  fech=1 deltaw=0 deltawcv=0 fechcv=1  hepi=8e-9  tsili=7e-9 rhoc=4e-13 cratio=0.5 deltaprsd=0  sdterm=0 ldg=2e-9 epsrsp=3.9 tgate=7.5e-9  tmask=0 asiliend=0 arsdend=0 prsdend=0  nsde=9e25 rgeoa=1 rgeob=0 rgeoc=0  rgeod=0 rgeoe=0 cgeoa=1 cgeob=0  cgeoc=0 cgeod=0 cgeoe=1  cit=1.3e-5  cdsc=0.0252 cdscd=0.007 dvt0=0.01 dvt1=0.69  phin=0.05 eta0=0.39 dsub=0.9 k1rsce=0  lpe0=5e-9 dvtshift=0 qmfactor=0 qmtceniv=0  qmtcencv=0 etaqm=0.54 qm0=0.001143 pqm=0.66  qm0acc=0.001 pqmacc=0.66 delvfbacc=0  u0=0.065  etamob=2 up=0 lpa=1 ua=0.3  aua=0 bua=1e-7 eu=1.8 ud=0  aud=0 bud=5e-8 ucs=0 rdswmin=0  rdsw=100 ardsw=0 brdsw=1e-7 prwg=0  wr=1 rswmin=0 rsw=0 arsw=0  brsw=1e-7 rdwmin=0 rdw=0 ardw=0  brdw=1e-7 rgfin=0.001 rgext=0 rshs=0  vsat=1.6e5  deltavsat=1 ksativ=0.8 avsat=0 avsat1=0  bvsat=1e-7 bvsat1=1e-7 mexp=3 amexp=0  bmexp=1 ptwg=0 aptwg=0 bptwg=1e-7  pclm=0.2 pclmcv=0.013 apclm=0 bpclm=1e-7  pclmg=0 pclmgcv=0 vasat=0.6 vasatcv=0.2  pdibl1=1.3 pdibl2=0.0002 drout=1.06 pvag=1  fpitch=2.2e-8  rth0=0.01 cth0=1e-5 wth0=0  aigbinv=0.0111  bigbinv=0.03 cigbinv=0.006 eigbinv=1.1 nigbinv=1.2  aigbacc=0.0149 bigbacc=0.000949 cigbacc=0.075 nigbacc=3  aigc=0.0136  bigc=0.00171 cigc=0.075 nigc=1  dlcigs=0 dlcigd=0 aigs=0.0136 aigd=0.0136  bigs=0.00171 bigd=0.00171 cigs=0.075 cigd=0.075  poxedge=1  agidl=5.729e-12 agisl=5.729e-12 bgidl=3e8 bgisl=3e8  egidl=0.1 egisl=0.1 alpha0=0  alpha1=0 alphaii=0 betaii0=0 betaii1=0  betaii2=0.1 esatii=1e7 lii=5e-10 sii0=0.5  sii1=0.1 sii2=0 siid=0 beta0=30  lintigen=0  ntgen=1 aigen=0 bigen=0  xrcrg1=12  xrcrg2=1  jss=1e-4 jsd=1e-4 jsws=0 jswgs=0  njs=1 njd=1 ijthsfwd=0.1 ijthdfwd=0.1  ijthsrev=0.1 ijthdrev=0.1 bvs=10 bvd=10  xjbvs=1 xjbvd=1 cjs=5e-4  cjd=5e-4 cjsws=5e-10 cjswgs=0 pbs=1  pbd=1 pbsws=1 mjs=0.5 mjd=0.5  mjsws2=0.33 mjswd2=0.33 mjsws=0.33 sjs=0  sjsws=0 sjswgs=0 mjs2=0.125 mjd2=0.125  cgsp=0 cgdp=0 cdsp=0 cfs=2.56e-11  cfd=2.65e-11 covs=2.5e-11 covd=2.5e-11 cgsl=0  ckappas=0.6 cgbo=0 cgbl=0  tbgasub=0.000702 tbgbsub=1108 kt1=0  kt1l=0 ute=0  utl=-0.0015 ua1=0.001032 ud1=0 ucste=-0.00478  at=-0.00156  ptwgt=0.004 tmexp=0 prt=0.001  iit=-0.5 tii=0 tgidl=-0.0003 igt=2.5  tcj=0 tcjsw=0 tcjswg=0 tpb=0  tpbsw=0 tpbswg=0 xtis=3 xtid=3  xtss=0.02 xtssws=0.02 xtsswgs=0.02 tnjts=0  tnjtssw=0 tnjtsswg=0  ef=1  lintnoi=0 em=4.1e7 noia=6.25e39 noib=3.125e24  noic=8.75e7 ntnoi=1
	* Unrecognized parameter "rdsmod" -- ignored
Error on line 1217 : .model nfet nmos level=49  bulkmod=1  lmin=1e-8 lmax=3e-8  version=105.03 igcmod=1 igbmod=1  gidlmod=0 iimod=0 geomod=1  rdsmod=1 rgatemod=0 rgeomod=1  shmod=0 nqsmod=0 coremod=0  cgeomod=2 capmod=0 tnom=300.15  eot=8.4e-10 eotbox=1.4e-7 tfin=6.5e-9 toxp=1.15e-9  nbody=1e22 phig=4.6136 epsrox=3.9 epsrsub=11.9  easub=4.05 ni0sub=1.1e16 bg0sub=1.12 nc0sub=2.86e25  nsd=3e26 ngate=0 nfin=1 d=4e-8  nseg=5 l=1.1e-8  xl=0 lint=-2.5e-10 ll=0 lln=1  llc=0 dlc=0 dlbin=0 hfin=1.8e-8  fech=1 deltaw=0 deltawcv=0 fechcv=1  hepi=8e-9  tsili=7e-9 rhoc=4e-13 cratio=0.5 deltaprsd=0  sdterm=0 ldg=2e-9 epsrsp=3.9 tgate=7.5e-9  tmask=0 asiliend=0 arsdend=0 prsdend=0  nsde=9e25 rgeoa=1 rgeob=0 rgeoc=0  rgeod=0 rgeoe=0 cgeoa=1 cgeob=0  cgeoc=0 cgeod=0 cgeoe=1  cit=1.3e-5  cdsc=0.0252 cdscd=0.007 dvt0=0.01 dvt1=0.69  phin=0.05 eta0=0.39 dsub=0.9 k1rsce=0  lpe0=5e-9 dvtshift=0 qmfactor=0 qmtceniv=0  qmtcencv=0 etaqm=0.54 qm0=0.001143 pqm=0.66  qm0acc=0.001 pqmacc=0.66 delvfbacc=0  u0=0.065  etamob=2 up=0 lpa=1 ua=0.3  aua=0 bua=1e-7 eu=1.8 ud=0  aud=0 bud=5e-8 ucs=0 rdswmin=0  rdsw=100 ardsw=0 brdsw=1e-7 prwg=0  wr=1 rswmin=0 rsw=0 arsw=0  brsw=1e-7 rdwmin=0 rdw=0 ardw=0  brdw=1e-7 rgfin=0.001 rgext=0 rshs=0  vsat=1.6e5  deltavsat=1 ksativ=0.8 avsat=0 avsat1=0  bvsat=1e-7 bvsat1=1e-7 mexp=3 amexp=0  bmexp=1 ptwg=0 aptwg=0 bptwg=1e-7  pclm=0.2 pclmcv=0.013 apclm=0 bpclm=1e-7  pclmg=0 pclmgcv=0 vasat=0.6 vasatcv=0.2  pdibl1=1.3 pdibl2=0.0002 drout=1.06 pvag=1  fpitch=2.2e-8  rth0=0.01 cth0=1e-5 wth0=0  aigbinv=0.0111  bigbinv=0.03 cigbinv=0.006 eigbinv=1.1 nigbinv=1.2  aigbacc=0.0149 bigbacc=0.000949 cigbacc=0.075 nigbacc=3  aigc=0.0136  bigc=0.00171 cigc=0.075 nigc=1  dlcigs=0 dlcigd=0 aigs=0.0136 aigd=0.0136  bigs=0.00171 bigd=0.00171 cigs=0.075 cigd=0.075  poxedge=1  agidl=5.729e-12 agisl=5.729e-12 bgidl=3e8 bgisl=3e8  egidl=0.1 egisl=0.1 alpha0=0  alpha1=0 alphaii=0 betaii0=0 betaii1=0  betaii2=0.1 esatii=1e7 lii=5e-10 sii0=0.5  sii1=0.1 sii2=0 siid=0 beta0=30  lintigen=0  ntgen=1 aigen=0 bigen=0  xrcrg1=12  xrcrg2=1  jss=1e-4 jsd=1e-4 jsws=0 jswgs=0  njs=1 njd=1 ijthsfwd=0.1 ijthdfwd=0.1  ijthsrev=0.1 ijthdrev=0.1 bvs=10 bvd=10  xjbvs=1 xjbvd=1 cjs=5e-4  cjd=5e-4 cjsws=5e-10 cjswgs=0 pbs=1  pbd=1 pbsws=1 mjs=0.5 mjd=0.5  mjsws2=0.33 mjswd2=0.33 mjsws=0.33 sjs=0  sjsws=0 sjswgs=0 mjs2=0.125 mjd2=0.125  cgsp=0 cgdp=0 cdsp=0 cfs=2.56e-11  cfd=2.65e-11 covs=2.5e-11 covd=2.5e-11 cgsl=0  ckappas=0.6 cgbo=0 cgbl=0  tbgasub=0.000702 tbgbsub=1108 kt1=0  kt1l=0 ute=0  utl=-0.0015 ua1=0.001032 ud1=0 ucste=-0.00478  at=-0.00156  ptwgt=0.004 tmexp=0 prt=0.001  iit=-0.5 tii=0 tgidl=-0.0003 igt=2.5  tcj=0 tcjsw=0 tcjswg=0 tpb=0  tpbsw=0 tpbswg=0 xtis=3 xtid=3  xtss=0.02 xtssws=0.02 xtsswgs=0.02 tnjts=0  tnjtssw=0 tnjtsswg=0  ef=1  lintnoi=0 em=4.1e7 noia=6.25e39 noib=3.125e24  noic=8.75e7 ntnoi=1
	* Unrecognized parameter "rgatemod" -- ignored
Error on line 1217 : .model nfet nmos level=49  bulkmod=1  lmin=1e-8 lmax=3e-8  version=105.03 igcmod=1 igbmod=1  gidlmod=0 iimod=0 geomod=1  rdsmod=1 rgatemod=0 rgeomod=1  shmod=0 nqsmod=0 coremod=0  cgeomod=2 capmod=0 tnom=300.15  eot=8.4e-10 eotbox=1.4e-7 tfin=6.5e-9 toxp=1.15e-9  nbody=1e22 phig=4.6136 epsrox=3.9 epsrsub=11.9  easub=4.05 ni0sub=1.1e16 bg0sub=1.12 nc0sub=2.86e25  nsd=3e26 ngate=0 nfin=1 d=4e-8  nseg=5 l=1.1e-8  xl=0 lint=-2.5e-10 ll=0 lln=1  llc=0 dlc=0 dlbin=0 hfin=1.8e-8  fech=1 deltaw=0 deltawcv=0 fechcv=1  hepi=8e-9  tsili=7e-9 rhoc=4e-13 cratio=0.5 deltaprsd=0  sdterm=0 ldg=2e-9 epsrsp=3.9 tgate=7.5e-9  tmask=0 asiliend=0 arsdend=0 prsdend=0  nsde=9e25 rgeoa=1 rgeob=0 rgeoc=0  rgeod=0 rgeoe=0 cgeoa=1 cgeob=0  cgeoc=0 cgeod=0 cgeoe=1  cit=1.3e-5  cdsc=0.0252 cdscd=0.007 dvt0=0.01 dvt1=0.69  phin=0.05 eta0=0.39 dsub=0.9 k1rsce=0  lpe0=5e-9 dvtshift=0 qmfactor=0 qmtceniv=0  qmtcencv=0 etaqm=0.54 qm0=0.001143 pqm=0.66  qm0acc=0.001 pqmacc=0.66 delvfbacc=0  u0=0.065  etamob=2 up=0 lpa=1 ua=0.3  aua=0 bua=1e-7 eu=1.8 ud=0  aud=0 bud=5e-8 ucs=0 rdswmin=0  rdsw=100 ardsw=0 brdsw=1e-7 prwg=0  wr=1 rswmin=0 rsw=0 arsw=0  brsw=1e-7 rdwmin=0 rdw=0 ardw=0  brdw=1e-7 rgfin=0.001 rgext=0 rshs=0  vsat=1.6e5  deltavsat=1 ksativ=0.8 avsat=0 avsat1=0  bvsat=1e-7 bvsat1=1e-7 mexp=3 amexp=0  bmexp=1 ptwg=0 aptwg=0 bptwg=1e-7  pclm=0.2 pclmcv=0.013 apclm=0 bpclm=1e-7  pclmg=0 pclmgcv=0 vasat=0.6 vasatcv=0.2  pdibl1=1.3 pdibl2=0.0002 drout=1.06 pvag=1  fpitch=2.2e-8  rth0=0.01 cth0=1e-5 wth0=0  aigbinv=0.0111  bigbinv=0.03 cigbinv=0.006 eigbinv=1.1 nigbinv=1.2  aigbacc=0.0149 bigbacc=0.000949 cigbacc=0.075 nigbacc=3  aigc=0.0136  bigc=0.00171 cigc=0.075 nigc=1  dlcigs=0 dlcigd=0 aigs=0.0136 aigd=0.0136  bigs=0.00171 bigd=0.00171 cigs=0.075 cigd=0.075  poxedge=1  agidl=5.729e-12 agisl=5.729e-12 bgidl=3e8 bgisl=3e8  egidl=0.1 egisl=0.1 alpha0=0  alpha1=0 alphaii=0 betaii0=0 betaii1=0  betaii2=0.1 esatii=1e7 lii=5e-10 sii0=0.5  sii1=0.1 sii2=0 siid=0 beta0=30  lintigen=0  ntgen=1 aigen=0 bigen=0  xrcrg1=12  xrcrg2=1  jss=1e-4 jsd=1e-4 jsws=0 jswgs=0  njs=1 njd=1 ijthsfwd=0.1 ijthdfwd=0.1  ijthsrev=0.1 ijthdrev=0.1 bvs=10 bvd=10  xjbvs=1 xjbvd=1 cjs=5e-4  cjd=5e-4 cjsws=5e-10 cjswgs=0 pbs=1  pbd=1 pbsws=1 mjs=0.5 mjd=0.5  mjsws2=0.33 mjswd2=0.33 mjsws=0.33 sjs=0  sjsws=0 sjswgs=0 mjs2=0.125 mjd2=0.125  cgsp=0 cgdp=0 cdsp=0 cfs=2.56e-11  cfd=2.65e-11 covs=2.5e-11 covd=2.5e-11 cgsl=0  ckappas=0.6 cgbo=0 cgbl=0  tbgasub=0.000702 tbgbsub=1108 kt1=0  kt1l=0 ute=0  utl=-0.0015 ua1=0.001032 ud1=0 ucste=-0.00478  at=-0.00156  ptwgt=0.004 tmexp=0 prt=0.001  iit=-0.5 tii=0 tgidl=-0.0003 igt=2.5  tcj=0 tcjsw=0 tcjswg=0 tpb=0  tpbsw=0 tpbswg=0 xtis=3 xtid=3  xtss=0.02 xtssws=0.02 xtsswgs=0.02 tnjts=0  tnjtssw=0 tnjtsswg=0  ef=1  lintnoi=0 em=4.1e7 noia=6.25e39 noib=3.125e24  noic=8.75e7 ntnoi=1
	* Unrecognized parameter "rgeomod" -- ignored
Error on line 1217 : .model nfet nmos level=49  bulkmod=1  lmin=1e-8 lmax=3e-8  version=105.03 igcmod=1 igbmod=1  gidlmod=0 iimod=0 geomod=1  rdsmod=1 rgatemod=0 rgeomod=1  shmod=0 nqsmod=0 coremod=0  cgeomod=2 capmod=0 tnom=300.15  eot=8.4e-10 eotbox=1.4e-7 tfin=6.5e-9 toxp=1.15e-9  nbody=1e22 phig=4.6136 epsrox=3.9 epsrsub=11.9  easub=4.05 ni0sub=1.1e16 bg0sub=1.12 nc0sub=2.86e25  nsd=3e26 ngate=0 nfin=1 d=4e-8  nseg=5 l=1.1e-8  xl=0 lint=-2.5e-10 ll=0 lln=1  llc=0 dlc=0 dlbin=0 hfin=1.8e-8  fech=1 deltaw=0 deltawcv=0 fechcv=1  hepi=8e-9  tsili=7e-9 rhoc=4e-13 cratio=0.5 deltaprsd=0  sdterm=0 ldg=2e-9 epsrsp=3.9 tgate=7.5e-9  tmask=0 asiliend=0 arsdend=0 prsdend=0  nsde=9e25 rgeoa=1 rgeob=0 rgeoc=0  rgeod=0 rgeoe=0 cgeoa=1 cgeob=0  cgeoc=0 cgeod=0 cgeoe=1  cit=1.3e-5  cdsc=0.0252 cdscd=0.007 dvt0=0.01 dvt1=0.69  phin=0.05 eta0=0.39 dsub=0.9 k1rsce=0  lpe0=5e-9 dvtshift=0 qmfactor=0 qmtceniv=0  qmtcencv=0 etaqm=0.54 qm0=0.001143 pqm=0.66  qm0acc=0.001 pqmacc=0.66 delvfbacc=0  u0=0.065  etamob=2 up=0 lpa=1 ua=0.3  aua=0 bua=1e-7 eu=1.8 ud=0  aud=0 bud=5e-8 ucs=0 rdswmin=0  rdsw=100 ardsw=0 brdsw=1e-7 prwg=0  wr=1 rswmin=0 rsw=0 arsw=0  brsw=1e-7 rdwmin=0 rdw=0 ardw=0  brdw=1e-7 rgfin=0.001 rgext=0 rshs=0  vsat=1.6e5  deltavsat=1 ksativ=0.8 avsat=0 avsat1=0  bvsat=1e-7 bvsat1=1e-7 mexp=3 amexp=0  bmexp=1 ptwg=0 aptwg=0 bptwg=1e-7  pclm=0.2 pclmcv=0.013 apclm=0 bpclm=1e-7  pclmg=0 pclmgcv=0 vasat=0.6 vasatcv=0.2  pdibl1=1.3 pdibl2=0.0002 drout=1.06 pvag=1  fpitch=2.2e-8  rth0=0.01 cth0=1e-5 wth0=0  aigbinv=0.0111  bigbinv=0.03 cigbinv=0.006 eigbinv=1.1 nigbinv=1.2  aigbacc=0.0149 bigbacc=0.000949 cigbacc=0.075 nigbacc=3  aigc=0.0136  bigc=0.00171 cigc=0.075 nigc=1  dlcigs=0 dlcigd=0 aigs=0.0136 aigd=0.0136  bigs=0.00171 bigd=0.00171 cigs=0.075 cigd=0.075  poxedge=1  agidl=5.729e-12 agisl=5.729e-12 bgidl=3e8 bgisl=3e8  egidl=0.1 egisl=0.1 alpha0=0  alpha1=0 alphaii=0 betaii0=0 betaii1=0  betaii2=0.1 esatii=1e7 lii=5e-10 sii0=0.5  sii1=0.1 sii2=0 siid=0 beta0=30  lintigen=0  ntgen=1 aigen=0 bigen=0  xrcrg1=12  xrcrg2=1  jss=1e-4 jsd=1e-4 jsws=0 jswgs=0  njs=1 njd=1 ijthsfwd=0.1 ijthdfwd=0.1  ijthsrev=0.1 ijthdrev=0.1 bvs=10 bvd=10  xjbvs=1 xjbvd=1 cjs=5e-4  cjd=5e-4 cjsws=5e-10 cjswgs=0 pbs=1  pbd=1 pbsws=1 mjs=0.5 mjd=0.5  mjsws2=0.33 mjswd2=0.33 mjsws=0.33 sjs=0  sjsws=0 sjswgs=0 mjs2=0.125 mjd2=0.125  cgsp=0 cgdp=0 cdsp=0 cfs=2.56e-11  cfd=2.65e-11 covs=2.5e-11 covd=2.5e-11 cgsl=0  ckappas=0.6 cgbo=0 cgbl=0  tbgasub=0.000702 tbgbsub=1108 kt1=0  kt1l=0 ute=0  utl=-0.0015 ua1=0.001032 ud1=0 ucste=-0.00478  at=-0.00156  ptwgt=0.004 tmexp=0 prt=0.001  iit=-0.5 tii=0 tgidl=-0.0003 igt=2.5  tcj=0 tcjsw=0 tcjswg=0 tpb=0  tpbsw=0 tpbswg=0 xtis=3 xtid=3  xtss=0.02 xtssws=0.02 xtsswgs=0.02 tnjts=0  tnjtssw=0 tnjtsswg=0  ef=1  lintnoi=0 em=4.1e7 noia=6.25e39 noib=3.125e24  noic=8.75e7 ntnoi=1
	* Unrecognized parameter "shmod" -- ignored
Error on line 1217 : .model nfet nmos level=49  bulkmod=1  lmin=1e-8 lmax=3e-8  version=105.03 igcmod=1 igbmod=1  gidlmod=0 iimod=0 geomod=1  rdsmod=1 rgatemod=0 rgeomod=1  shmod=0 nqsmod=0 coremod=0  cgeomod=2 capmod=0 tnom=300.15  eot=8.4e-10 eotbox=1.4e-7 tfin=6.5e-9 toxp=1.15e-9  nbody=1e22 phig=4.6136 epsrox=3.9 epsrsub=11.9  easub=4.05 ni0sub=1.1e16 bg0sub=1.12 nc0sub=2.86e25  nsd=3e26 ngate=0 nfin=1 d=4e-8  nseg=5 l=1.1e-8  xl=0 lint=-2.5e-10 ll=0 lln=1  llc=0 dlc=0 dlbin=0 hfin=1.8e-8  fech=1 deltaw=0 deltawcv=0 fechcv=1  hepi=8e-9  tsili=7e-9 rhoc=4e-13 cratio=0.5 deltaprsd=0  sdterm=0 ldg=2e-9 epsrsp=3.9 tgate=7.5e-9  tmask=0 asiliend=0 arsdend=0 prsdend=0  nsde=9e25 rgeoa=1 rgeob=0 rgeoc=0  rgeod=0 rgeoe=0 cgeoa=1 cgeob=0  cgeoc=0 cgeod=0 cgeoe=1  cit=1.3e-5  cdsc=0.0252 cdscd=0.007 dvt0=0.01 dvt1=0.69  phin=0.05 eta0=0.39 dsub=0.9 k1rsce=0  lpe0=5e-9 dvtshift=0 qmfactor=0 qmtceniv=0  qmtcencv=0 etaqm=0.54 qm0=0.001143 pqm=0.66  qm0acc=0.001 pqmacc=0.66 delvfbacc=0  u0=0.065  etamob=2 up=0 lpa=1 ua=0.3  aua=0 bua=1e-7 eu=1.8 ud=0  aud=0 bud=5e-8 ucs=0 rdswmin=0  rdsw=100 ardsw=0 brdsw=1e-7 prwg=0  wr=1 rswmin=0 rsw=0 arsw=0  brsw=1e-7 rdwmin=0 rdw=0 ardw=0  brdw=1e-7 rgfin=0.001 rgext=0 rshs=0  vsat=1.6e5  deltavsat=1 ksativ=0.8 avsat=0 avsat1=0  bvsat=1e-7 bvsat1=1e-7 mexp=3 amexp=0  bmexp=1 ptwg=0 aptwg=0 bptwg=1e-7  pclm=0.2 pclmcv=0.013 apclm=0 bpclm=1e-7  pclmg=0 pclmgcv=0 vasat=0.6 vasatcv=0.2  pdibl1=1.3 pdibl2=0.0002 drout=1.06 pvag=1  fpitch=2.2e-8  rth0=0.01 cth0=1e-5 wth0=0  aigbinv=0.0111  bigbinv=0.03 cigbinv=0.006 eigbinv=1.1 nigbinv=1.2  aigbacc=0.0149 bigbacc=0.000949 cigbacc=0.075 nigbacc=3  aigc=0.0136  bigc=0.00171 cigc=0.075 nigc=1  dlcigs=0 dlcigd=0 aigs=0.0136 aigd=0.0136  bigs=0.00171 bigd=0.00171 cigs=0.075 cigd=0.075  poxedge=1  agidl=5.729e-12 agisl=5.729e-12 bgidl=3e8 bgisl=3e8  egidl=0.1 egisl=0.1 alpha0=0  alpha1=0 alphaii=0 betaii0=0 betaii1=0  betaii2=0.1 esatii=1e7 lii=5e-10 sii0=0.5  sii1=0.1 sii2=0 siid=0 beta0=30  lintigen=0  ntgen=1 aigen=0 bigen=0  xrcrg1=12  xrcrg2=1  jss=1e-4 jsd=1e-4 jsws=0 jswgs=0  njs=1 njd=1 ijthsfwd=0.1 ijthdfwd=0.1  ijthsrev=0.1 ijthdrev=0.1 bvs=10 bvd=10  xjbvs=1 xjbvd=1 cjs=5e-4  cjd=5e-4 cjsws=5e-10 cjswgs=0 pbs=1  pbd=1 pbsws=1 mjs=0.5 mjd=0.5  mjsws2=0.33 mjswd2=0.33 mjsws=0.33 sjs=0  sjsws=0 sjswgs=0 mjs2=0.125 mjd2=0.125  cgsp=0 cgdp=0 cdsp=0 cfs=2.56e-11  cfd=2.65e-11 covs=2.5e-11 covd=2.5e-11 cgsl=0  ckappas=0.6 cgbo=0 cgbl=0  tbgasub=0.000702 tbgbsub=1108 kt1=0  kt1l=0 ute=0  utl=-0.0015 ua1=0.001032 ud1=0 ucste=-0.00478  at=-0.00156  ptwgt=0.004 tmexp=0 prt=0.001  iit=-0.5 tii=0 tgidl=-0.0003 igt=2.5  tcj=0 tcjsw=0 tcjswg=0 tpb=0  tpbsw=0 tpbswg=0 xtis=3 xtid=3  xtss=0.02 xtssws=0.02 xtsswgs=0.02 tnjts=0  tnjtssw=0 tnjtsswg=0  ef=1  lintnoi=0 em=4.1e7 noia=6.25e39 noib=3.125e24  noic=8.75e7 ntnoi=1
	* Unrecognized parameter "coremod" -- ignored
Error on line 1217 : .model nfet nmos level=49  bulkmod=1  lmin=1e-8 lmax=3e-8  version=105.03 igcmod=1 igbmod=1  gidlmod=0 iimod=0 geomod=1  rdsmod=1 rgatemod=0 rgeomod=1  shmod=0 nqsmod=0 coremod=0  cgeomod=2 capmod=0 tnom=300.15  eot=8.4e-10 eotbox=1.4e-7 tfin=6.5e-9 toxp=1.15e-9  nbody=1e22 phig=4.6136 epsrox=3.9 epsrsub=11.9  easub=4.05 ni0sub=1.1e16 bg0sub=1.12 nc0sub=2.86e25  nsd=3e26 ngate=0 nfin=1 d=4e-8  nseg=5 l=1.1e-8  xl=0 lint=-2.5e-10 ll=0 lln=1  llc=0 dlc=0 dlbin=0 hfin=1.8e-8  fech=1 deltaw=0 deltawcv=0 fechcv=1  hepi=8e-9  tsili=7e-9 rhoc=4e-13 cratio=0.5 deltaprsd=0  sdterm=0 ldg=2e-9 epsrsp=3.9 tgate=7.5e-9  tmask=0 asiliend=0 arsdend=0 prsdend=0  nsde=9e25 rgeoa=1 rgeob=0 rgeoc=0  rgeod=0 rgeoe=0 cgeoa=1 cgeob=0  cgeoc=0 cgeod=0 cgeoe=1  cit=1.3e-5  cdsc=0.0252 cdscd=0.007 dvt0=0.01 dvt1=0.69  phin=0.05 eta0=0.39 dsub=0.9 k1rsce=0  lpe0=5e-9 dvtshift=0 qmfactor=0 qmtceniv=0  qmtcencv=0 etaqm=0.54 qm0=0.001143 pqm=0.66  qm0acc=0.001 pqmacc=0.66 delvfbacc=0  u0=0.065  etamob=2 up=0 lpa=1 ua=0.3  aua=0 bua=1e-7 eu=1.8 ud=0  aud=0 bud=5e-8 ucs=0 rdswmin=0  rdsw=100 ardsw=0 brdsw=1e-7 prwg=0  wr=1 rswmin=0 rsw=0 arsw=0  brsw=1e-7 rdwmin=0 rdw=0 ardw=0  brdw=1e-7 rgfin=0.001 rgext=0 rshs=0  vsat=1.6e5  deltavsat=1 ksativ=0.8 avsat=0 avsat1=0  bvsat=1e-7 bvsat1=1e-7 mexp=3 amexp=0  bmexp=1 ptwg=0 aptwg=0 bptwg=1e-7  pclm=0.2 pclmcv=0.013 apclm=0 bpclm=1e-7  pclmg=0 pclmgcv=0 vasat=0.6 vasatcv=0.2  pdibl1=1.3 pdibl2=0.0002 drout=1.06 pvag=1  fpitch=2.2e-8  rth0=0.01 cth0=1e-5 wth0=0  aigbinv=0.0111  bigbinv=0.03 cigbinv=0.006 eigbinv=1.1 nigbinv=1.2  aigbacc=0.0149 bigbacc=0.000949 cigbacc=0.075 nigbacc=3  aigc=0.0136  bigc=0.00171 cigc=0.075 nigc=1  dlcigs=0 dlcigd=0 aigs=0.0136 aigd=0.0136  bigs=0.00171 bigd=0.00171 cigs=0.075 cigd=0.075  poxedge=1  agidl=5.729e-12 agisl=5.729e-12 bgidl=3e8 bgisl=3e8  egidl=0.1 egisl=0.1 alpha0=0  alpha1=0 alphaii=0 betaii0=0 betaii1=0  betaii2=0.1 esatii=1e7 lii=5e-10 sii0=0.5  sii1=0.1 sii2=0 siid=0 beta0=30  lintigen=0  ntgen=1 aigen=0 bigen=0  xrcrg1=12  xrcrg2=1  jss=1e-4 jsd=1e-4 jsws=0 jswgs=0  njs=1 njd=1 ijthsfwd=0.1 ijthdfwd=0.1  ijthsrev=0.1 ijthdrev=0.1 bvs=10 bvd=10  xjbvs=1 xjbvd=1 cjs=5e-4  cjd=5e-4 cjsws=5e-10 cjswgs=0 pbs=1  pbd=1 pbsws=1 mjs=0.5 mjd=0.5  mjsws2=0.33 mjswd2=0.33 mjsws=0.33 sjs=0  sjsws=0 sjswgs=0 mjs2=0.125 mjd2=0.125  cgsp=0 cgdp=0 cdsp=0 cfs=2.56e-11  cfd=2.65e-11 covs=2.5e-11 covd=2.5e-11 cgsl=0  ckappas=0.6 cgbo=0 cgbl=0  tbgasub=0.000702 tbgbsub=1108 kt1=0  kt1l=0 ute=0  utl=-0.0015 ua1=0.001032 ud1=0 ucste=-0.00478  at=-0.00156  ptwgt=0.004 tmexp=0 prt=0.001  iit=-0.5 tii=0 tgidl=-0.0003 igt=2.5  tcj=0 tcjsw=0 tcjswg=0 tpb=0  tpbsw=0 tpbswg=0 xtis=3 xtid=3  xtss=0.02 xtssws=0.02 xtsswgs=0.02 tnjts=0  tnjtssw=0 tnjtsswg=0  ef=1  lintnoi=0 em=4.1e7 noia=6.25e39 noib=3.125e24  noic=8.75e7 ntnoi=1
	* Unrecognized parameter "cgeomod" -- ignored
Error on line 1217 : .model nfet nmos level=49  bulkmod=1  lmin=1e-8 lmax=3e-8  version=105.03 igcmod=1 igbmod=1  gidlmod=0 iimod=0 geomod=1  rdsmod=1 rgatemod=0 rgeomod=1  shmod=0 nqsmod=0 coremod=0  cgeomod=2 capmod=0 tnom=300.15  eot=8.4e-10 eotbox=1.4e-7 tfin=6.5e-9 toxp=1.15e-9  nbody=1e22 phig=4.6136 epsrox=3.9 epsrsub=11.9  easub=4.05 ni0sub=1.1e16 bg0sub=1.12 nc0sub=2.86e25  nsd=3e26 ngate=0 nfin=1 d=4e-8  nseg=5 l=1.1e-8  xl=0 lint=-2.5e-10 ll=0 lln=1  llc=0 dlc=0 dlbin=0 hfin=1.8e-8  fech=1 deltaw=0 deltawcv=0 fechcv=1  hepi=8e-9  tsili=7e-9 rhoc=4e-13 cratio=0.5 deltaprsd=0  sdterm=0 ldg=2e-9 epsrsp=3.9 tgate=7.5e-9  tmask=0 asiliend=0 arsdend=0 prsdend=0  nsde=9e25 rgeoa=1 rgeob=0 rgeoc=0  rgeod=0 rgeoe=0 cgeoa=1 cgeob=0  cgeoc=0 cgeod=0 cgeoe=1  cit=1.3e-5  cdsc=0.0252 cdscd=0.007 dvt0=0.01 dvt1=0.69  phin=0.05 eta0=0.39 dsub=0.9 k1rsce=0  lpe0=5e-9 dvtshift=0 qmfactor=0 qmtceniv=0  qmtcencv=0 etaqm=0.54 qm0=0.001143 pqm=0.66  qm0acc=0.001 pqmacc=0.66 delvfbacc=0  u0=0.065  etamob=2 up=0 lpa=1 ua=0.3  aua=0 bua=1e-7 eu=1.8 ud=0  aud=0 bud=5e-8 ucs=0 rdswmin=0  rdsw=100 ardsw=0 brdsw=1e-7 prwg=0  wr=1 rswmin=0 rsw=0 arsw=0  brsw=1e-7 rdwmin=0 rdw=0 ardw=0  brdw=1e-7 rgfin=0.001 rgext=0 rshs=0  vsat=1.6e5  deltavsat=1 ksativ=0.8 avsat=0 avsat1=0  bvsat=1e-7 bvsat1=1e-7 mexp=3 amexp=0  bmexp=1 ptwg=0 aptwg=0 bptwg=1e-7  pclm=0.2 pclmcv=0.013 apclm=0 bpclm=1e-7  pclmg=0 pclmgcv=0 vasat=0.6 vasatcv=0.2  pdibl1=1.3 pdibl2=0.0002 drout=1.06 pvag=1  fpitch=2.2e-8  rth0=0.01 cth0=1e-5 wth0=0  aigbinv=0.0111  bigbinv=0.03 cigbinv=0.006 eigbinv=1.1 nigbinv=1.2  aigbacc=0.0149 bigbacc=0.000949 cigbacc=0.075 nigbacc=3  aigc=0.0136  bigc=0.00171 cigc=0.075 nigc=1  dlcigs=0 dlcigd=0 aigs=0.0136 aigd=0.0136  bigs=0.00171 bigd=0.00171 cigs=0.075 cigd=0.075  poxedge=1  agidl=5.729e-12 agisl=5.729e-12 bgidl=3e8 bgisl=3e8  egidl=0.1 egisl=0.1 alpha0=0  alpha1=0 alphaii=0 betaii0=0 betaii1=0  betaii2=0.1 esatii=1e7 lii=5e-10 sii0=0.5  sii1=0.1 sii2=0 siid=0 beta0=30  lintigen=0  ntgen=1 aigen=0 bigen=0  xrcrg1=12  xrcrg2=1  jss=1e-4 jsd=1e-4 jsws=0 jswgs=0  njs=1 njd=1 ijthsfwd=0.1 ijthdfwd=0.1  ijthsrev=0.1 ijthdrev=0.1 bvs=10 bvd=10  xjbvs=1 xjbvd=1 cjs=5e-4  cjd=5e-4 cjsws=5e-10 cjswgs=0 pbs=1  pbd=1 pbsws=1 mjs=0.5 mjd=0.5  mjsws2=0.33 mjswd2=0.33 mjsws=0.33 sjs=0  sjsws=0 sjswgs=0 mjs2=0.125 mjd2=0.125  cgsp=0 cgdp=0 cdsp=0 cfs=2.56e-11  cfd=2.65e-11 covs=2.5e-11 covd=2.5e-11 cgsl=0  ckappas=0.6 cgbo=0 cgbl=0  tbgasub=0.000702 tbgbsub=1108 kt1=0  kt1l=0 ute=0  utl=-0.0015 ua1=0.001032 ud1=0 ucste=-0.00478  at=-0.00156  ptwgt=0.004 tmexp=0 prt=0.001  iit=-0.5 tii=0 tgidl=-0.0003 igt=2.5  tcj=0 tcjsw=0 tcjswg=0 tpb=0  tpbsw=0 tpbswg=0 xtis=3 xtid=3  xtss=0.02 xtssws=0.02 xtsswgs=0.02 tnjts=0  tnjtssw=0 tnjtsswg=0  ef=1  lintnoi=0 em=4.1e7 noia=6.25e39 noib=3.125e24  noic=8.75e7 ntnoi=1
	* Unrecognized parameter "eot" -- ignored
Error on line 1217 : .model nfet nmos level=49  bulkmod=1  lmin=1e-8 lmax=3e-8  version=105.03 igcmod=1 igbmod=1  gidlmod=0 iimod=0 geomod=1  rdsmod=1 rgatemod=0 rgeomod=1  shmod=0 nqsmod=0 coremod=0  cgeomod=2 capmod=0 tnom=300.15  eot=8.4e-10 eotbox=1.4e-7 tfin=6.5e-9 toxp=1.15e-9  nbody=1e22 phig=4.6136 epsrox=3.9 epsrsub=11.9  easub=4.05 ni0sub=1.1e16 bg0sub=1.12 nc0sub=2.86e25  nsd=3e26 ngate=0 nfin=1 d=4e-8  nseg=5 l=1.1e-8  xl=0 lint=-2.5e-10 ll=0 lln=1  llc=0 dlc=0 dlbin=0 hfin=1.8e-8  fech=1 deltaw=0 deltawcv=0 fechcv=1  hepi=8e-9  tsili=7e-9 rhoc=4e-13 cratio=0.5 deltaprsd=0  sdterm=0 ldg=2e-9 epsrsp=3.9 tgate=7.5e-9  tmask=0 asiliend=0 arsdend=0 prsdend=0  nsde=9e25 rgeoa=1 rgeob=0 rgeoc=0  rgeod=0 rgeoe=0 cgeoa=1 cgeob=0  cgeoc=0 cgeod=0 cgeoe=1  cit=1.3e-5  cdsc=0.0252 cdscd=0.007 dvt0=0.01 dvt1=0.69  phin=0.05 eta0=0.39 dsub=0.9 k1rsce=0  lpe0=5e-9 dvtshift=0 qmfactor=0 qmtceniv=0  qmtcencv=0 etaqm=0.54 qm0=0.001143 pqm=0.66  qm0acc=0.001 pqmacc=0.66 delvfbacc=0  u0=0.065  etamob=2 up=0 lpa=1 ua=0.3  aua=0 bua=1e-7 eu=1.8 ud=0  aud=0 bud=5e-8 ucs=0 rdswmin=0  rdsw=100 ardsw=0 brdsw=1e-7 prwg=0  wr=1 rswmin=0 rsw=0 arsw=0  brsw=1e-7 rdwmin=0 rdw=0 ardw=0  brdw=1e-7 rgfin=0.001 rgext=0 rshs=0  vsat=1.6e5  deltavsat=1 ksativ=0.8 avsat=0 avsat1=0  bvsat=1e-7 bvsat1=1e-7 mexp=3 amexp=0  bmexp=1 ptwg=0 aptwg=0 bptwg=1e-7  pclm=0.2 pclmcv=0.013 apclm=0 bpclm=1e-7  pclmg=0 pclmgcv=0 vasat=0.6 vasatcv=0.2  pdibl1=1.3 pdibl2=0.0002 drout=1.06 pvag=1  fpitch=2.2e-8  rth0=0.01 cth0=1e-5 wth0=0  aigbinv=0.0111  bigbinv=0.03 cigbinv=0.006 eigbinv=1.1 nigbinv=1.2  aigbacc=0.0149 bigbacc=0.000949 cigbacc=0.075 nigbacc=3  aigc=0.0136  bigc=0.00171 cigc=0.075 nigc=1  dlcigs=0 dlcigd=0 aigs=0.0136 aigd=0.0136  bigs=0.00171 bigd=0.00171 cigs=0.075 cigd=0.075  poxedge=1  agidl=5.729e-12 agisl=5.729e-12 bgidl=3e8 bgisl=3e8  egidl=0.1 egisl=0.1 alpha0=0  alpha1=0 alphaii=0 betaii0=0 betaii1=0  betaii2=0.1 esatii=1e7 lii=5e-10 sii0=0.5  sii1=0.1 sii2=0 siid=0 beta0=30  lintigen=0  ntgen=1 aigen=0 bigen=0  xrcrg1=12  xrcrg2=1  jss=1e-4 jsd=1e-4 jsws=0 jswgs=0  njs=1 njd=1 ijthsfwd=0.1 ijthdfwd=0.1  ijthsrev=0.1 ijthdrev=0.1 bvs=10 bvd=10  xjbvs=1 xjbvd=1 cjs=5e-4  cjd=5e-4 cjsws=5e-10 cjswgs=0 pbs=1  pbd=1 pbsws=1 mjs=0.5 mjd=0.5  mjsws2=0.33 mjswd2=0.33 mjsws=0.33 sjs=0  sjsws=0 sjswgs=0 mjs2=0.125 mjd2=0.125  cgsp=0 cgdp=0 cdsp=0 cfs=2.56e-11  cfd=2.65e-11 covs=2.5e-11 covd=2.5e-11 cgsl=0  ckappas=0.6 cgbo=0 cgbl=0  tbgasub=0.000702 tbgbsub=1108 kt1=0  kt1l=0 ute=0  utl=-0.0015 ua1=0.001032 ud1=0 ucste=-0.00478  at=-0.00156  ptwgt=0.004 tmexp=0 prt=0.001  iit=-0.5 tii=0 tgidl=-0.0003 igt=2.5  tcj=0 tcjsw=0 tcjswg=0 tpb=0  tpbsw=0 tpbswg=0 xtis=3 xtid=3  xtss=0.02 xtssws=0.02 xtsswgs=0.02 tnjts=0  tnjtssw=0 tnjtsswg=0  ef=1  lintnoi=0 em=4.1e7 noia=6.25e39 noib=3.125e24  noic=8.75e7 ntnoi=1
	* Unrecognized parameter "eotbox" -- ignored
Error on line 1217 : .model nfet nmos level=49  bulkmod=1  lmin=1e-8 lmax=3e-8  version=105.03 igcmod=1 igbmod=1  gidlmod=0 iimod=0 geomod=1  rdsmod=1 rgatemod=0 rgeomod=1  shmod=0 nqsmod=0 coremod=0  cgeomod=2 capmod=0 tnom=300.15  eot=8.4e-10 eotbox=1.4e-7 tfin=6.5e-9 toxp=1.15e-9  nbody=1e22 phig=4.6136 epsrox=3.9 epsrsub=11.9  easub=4.05 ni0sub=1.1e16 bg0sub=1.12 nc0sub=2.86e25  nsd=3e26 ngate=0 nfin=1 d=4e-8  nseg=5 l=1.1e-8  xl=0 lint=-2.5e-10 ll=0 lln=1  llc=0 dlc=0 dlbin=0 hfin=1.8e-8  fech=1 deltaw=0 deltawcv=0 fechcv=1  hepi=8e-9  tsili=7e-9 rhoc=4e-13 cratio=0.5 deltaprsd=0  sdterm=0 ldg=2e-9 epsrsp=3.9 tgate=7.5e-9  tmask=0 asiliend=0 arsdend=0 prsdend=0  nsde=9e25 rgeoa=1 rgeob=0 rgeoc=0  rgeod=0 rgeoe=0 cgeoa=1 cgeob=0  cgeoc=0 cgeod=0 cgeoe=1  cit=1.3e-5  cdsc=0.0252 cdscd=0.007 dvt0=0.01 dvt1=0.69  phin=0.05 eta0=0.39 dsub=0.9 k1rsce=0  lpe0=5e-9 dvtshift=0 qmfactor=0 qmtceniv=0  qmtcencv=0 etaqm=0.54 qm0=0.001143 pqm=0.66  qm0acc=0.001 pqmacc=0.66 delvfbacc=0  u0=0.065  etamob=2 up=0 lpa=1 ua=0.3  aua=0 bua=1e-7 eu=1.8 ud=0  aud=0 bud=5e-8 ucs=0 rdswmin=0  rdsw=100 ardsw=0 brdsw=1e-7 prwg=0  wr=1 rswmin=0 rsw=0 arsw=0  brsw=1e-7 rdwmin=0 rdw=0 ardw=0  brdw=1e-7 rgfin=0.001 rgext=0 rshs=0  vsat=1.6e5  deltavsat=1 ksativ=0.8 avsat=0 avsat1=0  bvsat=1e-7 bvsat1=1e-7 mexp=3 amexp=0  bmexp=1 ptwg=0 aptwg=0 bptwg=1e-7  pclm=0.2 pclmcv=0.013 apclm=0 bpclm=1e-7  pclmg=0 pclmgcv=0 vasat=0.6 vasatcv=0.2  pdibl1=1.3 pdibl2=0.0002 drout=1.06 pvag=1  fpitch=2.2e-8  rth0=0.01 cth0=1e-5 wth0=0  aigbinv=0.0111  bigbinv=0.03 cigbinv=0.006 eigbinv=1.1 nigbinv=1.2  aigbacc=0.0149 bigbacc=0.000949 cigbacc=0.075 nigbacc=3  aigc=0.0136  bigc=0.00171 cigc=0.075 nigc=1  dlcigs=0 dlcigd=0 aigs=0.0136 aigd=0.0136  bigs=0.00171 bigd=0.00171 cigs=0.075 cigd=0.075  poxedge=1  agidl=5.729e-12 agisl=5.729e-12 bgidl=3e8 bgisl=3e8  egidl=0.1 egisl=0.1 alpha0=0  alpha1=0 alphaii=0 betaii0=0 betaii1=0  betaii2=0.1 esatii=1e7 lii=5e-10 sii0=0.5  sii1=0.1 sii2=0 siid=0 beta0=30  lintigen=0  ntgen=1 aigen=0 bigen=0  xrcrg1=12  xrcrg2=1  jss=1e-4 jsd=1e-4 jsws=0 jswgs=0  njs=1 njd=1 ijthsfwd=0.1 ijthdfwd=0.1  ijthsrev=0.1 ijthdrev=0.1 bvs=10 bvd=10  xjbvs=1 xjbvd=1 cjs=5e-4  cjd=5e-4 cjsws=5e-10 cjswgs=0 pbs=1  pbd=1 pbsws=1 mjs=0.5 mjd=0.5  mjsws2=0.33 mjswd2=0.33 mjsws=0.33 sjs=0  sjsws=0 sjswgs=0 mjs2=0.125 mjd2=0.125  cgsp=0 cgdp=0 cdsp=0 cfs=2.56e-11  cfd=2.65e-11 covs=2.5e-11 covd=2.5e-11 cgsl=0  ckappas=0.6 cgbo=0 cgbl=0  tbgasub=0.000702 tbgbsub=1108 kt1=0  kt1l=0 ute=0  utl=-0.0015 ua1=0.001032 ud1=0 ucste=-0.00478  at=-0.00156  ptwgt=0.004 tmexp=0 prt=0.001  iit=-0.5 tii=0 tgidl=-0.0003 igt=2.5  tcj=0 tcjsw=0 tcjswg=0 tpb=0  tpbsw=0 tpbswg=0 xtis=3 xtid=3  xtss=0.02 xtssws=0.02 xtsswgs=0.02 tnjts=0  tnjtssw=0 tnjtsswg=0  ef=1  lintnoi=0 em=4.1e7 noia=6.25e39 noib=3.125e24  noic=8.75e7 ntnoi=1
	* Unrecognized parameter "tfin" -- ignored
Error on line 1217 : .model nfet nmos level=49  bulkmod=1  lmin=1e-8 lmax=3e-8  version=105.03 igcmod=1 igbmod=1  gidlmod=0 iimod=0 geomod=1  rdsmod=1 rgatemod=0 rgeomod=1  shmod=0 nqsmod=0 coremod=0  cgeomod=2 capmod=0 tnom=300.15  eot=8.4e-10 eotbox=1.4e-7 tfin=6.5e-9 toxp=1.15e-9  nbody=1e22 phig=4.6136 epsrox=3.9 epsrsub=11.9  easub=4.05 ni0sub=1.1e16 bg0sub=1.12 nc0sub=2.86e25  nsd=3e26 ngate=0 nfin=1 d=4e-8  nseg=5 l=1.1e-8  xl=0 lint=-2.5e-10 ll=0 lln=1  llc=0 dlc=0 dlbin=0 hfin=1.8e-8  fech=1 deltaw=0 deltawcv=0 fechcv=1  hepi=8e-9  tsili=7e-9 rhoc=4e-13 cratio=0.5 deltaprsd=0  sdterm=0 ldg=2e-9 epsrsp=3.9 tgate=7.5e-9  tmask=0 asiliend=0 arsdend=0 prsdend=0  nsde=9e25 rgeoa=1 rgeob=0 rgeoc=0  rgeod=0 rgeoe=0 cgeoa=1 cgeob=0  cgeoc=0 cgeod=0 cgeoe=1  cit=1.3e-5  cdsc=0.0252 cdscd=0.007 dvt0=0.01 dvt1=0.69  phin=0.05 eta0=0.39 dsub=0.9 k1rsce=0  lpe0=5e-9 dvtshift=0 qmfactor=0 qmtceniv=0  qmtcencv=0 etaqm=0.54 qm0=0.001143 pqm=0.66  qm0acc=0.001 pqmacc=0.66 delvfbacc=0  u0=0.065  etamob=2 up=0 lpa=1 ua=0.3  aua=0 bua=1e-7 eu=1.8 ud=0  aud=0 bud=5e-8 ucs=0 rdswmin=0  rdsw=100 ardsw=0 brdsw=1e-7 prwg=0  wr=1 rswmin=0 rsw=0 arsw=0  brsw=1e-7 rdwmin=0 rdw=0 ardw=0  brdw=1e-7 rgfin=0.001 rgext=0 rshs=0  vsat=1.6e5  deltavsat=1 ksativ=0.8 avsat=0 avsat1=0  bvsat=1e-7 bvsat1=1e-7 mexp=3 amexp=0  bmexp=1 ptwg=0 aptwg=0 bptwg=1e-7  pclm=0.2 pclmcv=0.013 apclm=0 bpclm=1e-7  pclmg=0 pclmgcv=0 vasat=0.6 vasatcv=0.2  pdibl1=1.3 pdibl2=0.0002 drout=1.06 pvag=1  fpitch=2.2e-8  rth0=0.01 cth0=1e-5 wth0=0  aigbinv=0.0111  bigbinv=0.03 cigbinv=0.006 eigbinv=1.1 nigbinv=1.2  aigbacc=0.0149 bigbacc=0.000949 cigbacc=0.075 nigbacc=3  aigc=0.0136  bigc=0.00171 cigc=0.075 nigc=1  dlcigs=0 dlcigd=0 aigs=0.0136 aigd=0.0136  bigs=0.00171 bigd=0.00171 cigs=0.075 cigd=0.075  poxedge=1  agidl=5.729e-12 agisl=5.729e-12 bgidl=3e8 bgisl=3e8  egidl=0.1 egisl=0.1 alpha0=0  alpha1=0 alphaii=0 betaii0=0 betaii1=0  betaii2=0.1 esatii=1e7 lii=5e-10 sii0=0.5  sii1=0.1 sii2=0 siid=0 beta0=30  lintigen=0  ntgen=1 aigen=0 bigen=0  xrcrg1=12  xrcrg2=1  jss=1e-4 jsd=1e-4 jsws=0 jswgs=0  njs=1 njd=1 ijthsfwd=0.1 ijthdfwd=0.1  ijthsrev=0.1 ijthdrev=0.1 bvs=10 bvd=10  xjbvs=1 xjbvd=1 cjs=5e-4  cjd=5e-4 cjsws=5e-10 cjswgs=0 pbs=1  pbd=1 pbsws=1 mjs=0.5 mjd=0.5  mjsws2=0.33 mjswd2=0.33 mjsws=0.33 sjs=0  sjsws=0 sjswgs=0 mjs2=0.125 mjd2=0.125  cgsp=0 cgdp=0 cdsp=0 cfs=2.56e-11  cfd=2.65e-11 covs=2.5e-11 covd=2.5e-11 cgsl=0  ckappas=0.6 cgbo=0 cgbl=0  tbgasub=0.000702 tbgbsub=1108 kt1=0  kt1l=0 ute=0  utl=-0.0015 ua1=0.001032 ud1=0 ucste=-0.00478  at=-0.00156  ptwgt=0.004 tmexp=0 prt=0.001  iit=-0.5 tii=0 tgidl=-0.0003 igt=2.5  tcj=0 tcjsw=0 tcjswg=0 tpb=0  tpbsw=0 tpbswg=0 xtis=3 xtid=3  xtss=0.02 xtssws=0.02 xtsswgs=0.02 tnjts=0  tnjtssw=0 tnjtsswg=0  ef=1  lintnoi=0 em=4.1e7 noia=6.25e39 noib=3.125e24  noic=8.75e7 ntnoi=1
	* Unrecognized parameter "toxp" -- ignored
Error on line 1217 : .model nfet nmos level=49  bulkmod=1  lmin=1e-8 lmax=3e-8  version=105.03 igcmod=1 igbmod=1  gidlmod=0 iimod=0 geomod=1  rdsmod=1 rgatemod=0 rgeomod=1  shmod=0 nqsmod=0 coremod=0  cgeomod=2 capmod=0 tnom=300.15  eot=8.4e-10 eotbox=1.4e-7 tfin=6.5e-9 toxp=1.15e-9  nbody=1e22 phig=4.6136 epsrox=3.9 epsrsub=11.9  easub=4.05 ni0sub=1.1e16 bg0sub=1.12 nc0sub=2.86e25  nsd=3e26 ngate=0 nfin=1 d=4e-8  nseg=5 l=1.1e-8  xl=0 lint=-2.5e-10 ll=0 lln=1  llc=0 dlc=0 dlbin=0 hfin=1.8e-8  fech=1 deltaw=0 deltawcv=0 fechcv=1  hepi=8e-9  tsili=7e-9 rhoc=4e-13 cratio=0.5 deltaprsd=0  sdterm=0 ldg=2e-9 epsrsp=3.9 tgate=7.5e-9  tmask=0 asiliend=0 arsdend=0 prsdend=0  nsde=9e25 rgeoa=1 rgeob=0 rgeoc=0  rgeod=0 rgeoe=0 cgeoa=1 cgeob=0  cgeoc=0 cgeod=0 cgeoe=1  cit=1.3e-5  cdsc=0.0252 cdscd=0.007 dvt0=0.01 dvt1=0.69  phin=0.05 eta0=0.39 dsub=0.9 k1rsce=0  lpe0=5e-9 dvtshift=0 qmfactor=0 qmtceniv=0  qmtcencv=0 etaqm=0.54 qm0=0.001143 pqm=0.66  qm0acc=0.001 pqmacc=0.66 delvfbacc=0  u0=0.065  etamob=2 up=0 lpa=1 ua=0.3  aua=0 bua=1e-7 eu=1.8 ud=0  aud=0 bud=5e-8 ucs=0 rdswmin=0  rdsw=100 ardsw=0 brdsw=1e-7 prwg=0  wr=1 rswmin=0 rsw=0 arsw=0  brsw=1e-7 rdwmin=0 rdw=0 ardw=0  brdw=1e-7 rgfin=0.001 rgext=0 rshs=0  vsat=1.6e5  deltavsat=1 ksativ=0.8 avsat=0 avsat1=0  bvsat=1e-7 bvsat1=1e-7 mexp=3 amexp=0  bmexp=1 ptwg=0 aptwg=0 bptwg=1e-7  pclm=0.2 pclmcv=0.013 apclm=0 bpclm=1e-7  pclmg=0 pclmgcv=0 vasat=0.6 vasatcv=0.2  pdibl1=1.3 pdibl2=0.0002 drout=1.06 pvag=1  fpitch=2.2e-8  rth0=0.01 cth0=1e-5 wth0=0  aigbinv=0.0111  bigbinv=0.03 cigbinv=0.006 eigbinv=1.1 nigbinv=1.2  aigbacc=0.0149 bigbacc=0.000949 cigbacc=0.075 nigbacc=3  aigc=0.0136  bigc=0.00171 cigc=0.075 nigc=1  dlcigs=0 dlcigd=0 aigs=0.0136 aigd=0.0136  bigs=0.00171 bigd=0.00171 cigs=0.075 cigd=0.075  poxedge=1  agidl=5.729e-12 agisl=5.729e-12 bgidl=3e8 bgisl=3e8  egidl=0.1 egisl=0.1 alpha0=0  alpha1=0 alphaii=0 betaii0=0 betaii1=0  betaii2=0.1 esatii=1e7 lii=5e-10 sii0=0.5  sii1=0.1 sii2=0 siid=0 beta0=30  lintigen=0  ntgen=1 aigen=0 bigen=0  xrcrg1=12  xrcrg2=1  jss=1e-4 jsd=1e-4 jsws=0 jswgs=0  njs=1 njd=1 ijthsfwd=0.1 ijthdfwd=0.1  ijthsrev=0.1 ijthdrev=0.1 bvs=10 bvd=10  xjbvs=1 xjbvd=1 cjs=5e-4  cjd=5e-4 cjsws=5e-10 cjswgs=0 pbs=1  pbd=1 pbsws=1 mjs=0.5 mjd=0.5  mjsws2=0.33 mjswd2=0.33 mjsws=0.33 sjs=0  sjsws=0 sjswgs=0 mjs2=0.125 mjd2=0.125  cgsp=0 cgdp=0 cdsp=0 cfs=2.56e-11  cfd=2.65e-11 covs=2.5e-11 covd=2.5e-11 cgsl=0  ckappas=0.6 cgbo=0 cgbl=0  tbgasub=0.000702 tbgbsub=1108 kt1=0  kt1l=0 ute=0  utl=-0.0015 ua1=0.001032 ud1=0 ucste=-0.00478  at=-0.00156  ptwgt=0.004 tmexp=0 prt=0.001  iit=-0.5 tii=0 tgidl=-0.0003 igt=2.5  tcj=0 tcjsw=0 tcjswg=0 tpb=0  tpbsw=0 tpbswg=0 xtis=3 xtid=3  xtss=0.02 xtssws=0.02 xtsswgs=0.02 tnjts=0  tnjtssw=0 tnjtsswg=0  ef=1  lintnoi=0 em=4.1e7 noia=6.25e39 noib=3.125e24  noic=8.75e7 ntnoi=1
	* Unrecognized parameter "nbody" -- ignored
Error on line 1217 : .model nfet nmos level=49  bulkmod=1  lmin=1e-8 lmax=3e-8  version=105.03 igcmod=1 igbmod=1  gidlmod=0 iimod=0 geomod=1  rdsmod=1 rgatemod=0 rgeomod=1  shmod=0 nqsmod=0 coremod=0  cgeomod=2 capmod=0 tnom=300.15  eot=8.4e-10 eotbox=1.4e-7 tfin=6.5e-9 toxp=1.15e-9  nbody=1e22 phig=4.6136 epsrox=3.9 epsrsub=11.9  easub=4.05 ni0sub=1.1e16 bg0sub=1.12 nc0sub=2.86e25  nsd=3e26 ngate=0 nfin=1 d=4e-8  nseg=5 l=1.1e-8  xl=0 lint=-2.5e-10 ll=0 lln=1  llc=0 dlc=0 dlbin=0 hfin=1.8e-8  fech=1 deltaw=0 deltawcv=0 fechcv=1  hepi=8e-9  tsili=7e-9 rhoc=4e-13 cratio=0.5 deltaprsd=0  sdterm=0 ldg=2e-9 epsrsp=3.9 tgate=7.5e-9  tmask=0 asiliend=0 arsdend=0 prsdend=0  nsde=9e25 rgeoa=1 rgeob=0 rgeoc=0  rgeod=0 rgeoe=0 cgeoa=1 cgeob=0  cgeoc=0 cgeod=0 cgeoe=1  cit=1.3e-5  cdsc=0.0252 cdscd=0.007 dvt0=0.01 dvt1=0.69  phin=0.05 eta0=0.39 dsub=0.9 k1rsce=0  lpe0=5e-9 dvtshift=0 qmfactor=0 qmtceniv=0  qmtcencv=0 etaqm=0.54 qm0=0.001143 pqm=0.66  qm0acc=0.001 pqmacc=0.66 delvfbacc=0  u0=0.065  etamob=2 up=0 lpa=1 ua=0.3  aua=0 bua=1e-7 eu=1.8 ud=0  aud=0 bud=5e-8 ucs=0 rdswmin=0  rdsw=100 ardsw=0 brdsw=1e-7 prwg=0  wr=1 rswmin=0 rsw=0 arsw=0  brsw=1e-7 rdwmin=0 rdw=0 ardw=0  brdw=1e-7 rgfin=0.001 rgext=0 rshs=0  vsat=1.6e5  deltavsat=1 ksativ=0.8 avsat=0 avsat1=0  bvsat=1e-7 bvsat1=1e-7 mexp=3 amexp=0  bmexp=1 ptwg=0 aptwg=0 bptwg=1e-7  pclm=0.2 pclmcv=0.013 apclm=0 bpclm=1e-7  pclmg=0 pclmgcv=0 vasat=0.6 vasatcv=0.2  pdibl1=1.3 pdibl2=0.0002 drout=1.06 pvag=1  fpitch=2.2e-8  rth0=0.01 cth0=1e-5 wth0=0  aigbinv=0.0111  bigbinv=0.03 cigbinv=0.006 eigbinv=1.1 nigbinv=1.2  aigbacc=0.0149 bigbacc=0.000949 cigbacc=0.075 nigbacc=3  aigc=0.0136  bigc=0.00171 cigc=0.075 nigc=1  dlcigs=0 dlcigd=0 aigs=0.0136 aigd=0.0136  bigs=0.00171 bigd=0.00171 cigs=0.075 cigd=0.075  poxedge=1  agidl=5.729e-12 agisl=5.729e-12 bgidl=3e8 bgisl=3e8  egidl=0.1 egisl=0.1 alpha0=0  alpha1=0 alphaii=0 betaii0=0 betaii1=0  betaii2=0.1 esatii=1e7 lii=5e-10 sii0=0.5  sii1=0.1 sii2=0 siid=0 beta0=30  lintigen=0  ntgen=1 aigen=0 bigen=0  xrcrg1=12  xrcrg2=1  jss=1e-4 jsd=1e-4 jsws=0 jswgs=0  njs=1 njd=1 ijthsfwd=0.1 ijthdfwd=0.1  ijthsrev=0.1 ijthdrev=0.1 bvs=10 bvd=10  xjbvs=1 xjbvd=1 cjs=5e-4  cjd=5e-4 cjsws=5e-10 cjswgs=0 pbs=1  pbd=1 pbsws=1 mjs=0.5 mjd=0.5  mjsws2=0.33 mjswd2=0.33 mjsws=0.33 sjs=0  sjsws=0 sjswgs=0 mjs2=0.125 mjd2=0.125  cgsp=0 cgdp=0 cdsp=0 cfs=2.56e-11  cfd=2.65e-11 covs=2.5e-11 covd=2.5e-11 cgsl=0  ckappas=0.6 cgbo=0 cgbl=0  tbgasub=0.000702 tbgbsub=1108 kt1=0  kt1l=0 ute=0  utl=-0.0015 ua1=0.001032 ud1=0 ucste=-0.00478  at=-0.00156  ptwgt=0.004 tmexp=0 prt=0.001  iit=-0.5 tii=0 tgidl=-0.0003 igt=2.5  tcj=0 tcjsw=0 tcjswg=0 tpb=0  tpbsw=0 tpbswg=0 xtis=3 xtid=3  xtss=0.02 xtssws=0.02 xtsswgs=0.02 tnjts=0  tnjtssw=0 tnjtsswg=0  ef=1  lintnoi=0 em=4.1e7 noia=6.25e39 noib=3.125e24  noic=8.75e7 ntnoi=1
	* Unrecognized parameter "phig" -- ignored
Error on line 1217 : .model nfet nmos level=49  bulkmod=1  lmin=1e-8 lmax=3e-8  version=105.03 igcmod=1 igbmod=1  gidlmod=0 iimod=0 geomod=1  rdsmod=1 rgatemod=0 rgeomod=1  shmod=0 nqsmod=0 coremod=0  cgeomod=2 capmod=0 tnom=300.15  eot=8.4e-10 eotbox=1.4e-7 tfin=6.5e-9 toxp=1.15e-9  nbody=1e22 phig=4.6136 epsrox=3.9 epsrsub=11.9  easub=4.05 ni0sub=1.1e16 bg0sub=1.12 nc0sub=2.86e25  nsd=3e26 ngate=0 nfin=1 d=4e-8  nseg=5 l=1.1e-8  xl=0 lint=-2.5e-10 ll=0 lln=1  llc=0 dlc=0 dlbin=0 hfin=1.8e-8  fech=1 deltaw=0 deltawcv=0 fechcv=1  hepi=8e-9  tsili=7e-9 rhoc=4e-13 cratio=0.5 deltaprsd=0  sdterm=0 ldg=2e-9 epsrsp=3.9 tgate=7.5e-9  tmask=0 asiliend=0 arsdend=0 prsdend=0  nsde=9e25 rgeoa=1 rgeob=0 rgeoc=0  rgeod=0 rgeoe=0 cgeoa=1 cgeob=0  cgeoc=0 cgeod=0 cgeoe=1  cit=1.3e-5  cdsc=0.0252 cdscd=0.007 dvt0=0.01 dvt1=0.69  phin=0.05 eta0=0.39 dsub=0.9 k1rsce=0  lpe0=5e-9 dvtshift=0 qmfactor=0 qmtceniv=0  qmtcencv=0 etaqm=0.54 qm0=0.001143 pqm=0.66  qm0acc=0.001 pqmacc=0.66 delvfbacc=0  u0=0.065  etamob=2 up=0 lpa=1 ua=0.3  aua=0 bua=1e-7 eu=1.8 ud=0  aud=0 bud=5e-8 ucs=0 rdswmin=0  rdsw=100 ardsw=0 brdsw=1e-7 prwg=0  wr=1 rswmin=0 rsw=0 arsw=0  brsw=1e-7 rdwmin=0 rdw=0 ardw=0  brdw=1e-7 rgfin=0.001 rgext=0 rshs=0  vsat=1.6e5  deltavsat=1 ksativ=0.8 avsat=0 avsat1=0  bvsat=1e-7 bvsat1=1e-7 mexp=3 amexp=0  bmexp=1 ptwg=0 aptwg=0 bptwg=1e-7  pclm=0.2 pclmcv=0.013 apclm=0 bpclm=1e-7  pclmg=0 pclmgcv=0 vasat=0.6 vasatcv=0.2  pdibl1=1.3 pdibl2=0.0002 drout=1.06 pvag=1  fpitch=2.2e-8  rth0=0.01 cth0=1e-5 wth0=0  aigbinv=0.0111  bigbinv=0.03 cigbinv=0.006 eigbinv=1.1 nigbinv=1.2  aigbacc=0.0149 bigbacc=0.000949 cigbacc=0.075 nigbacc=3  aigc=0.0136  bigc=0.00171 cigc=0.075 nigc=1  dlcigs=0 dlcigd=0 aigs=0.0136 aigd=0.0136  bigs=0.00171 bigd=0.00171 cigs=0.075 cigd=0.075  poxedge=1  agidl=5.729e-12 agisl=5.729e-12 bgidl=3e8 bgisl=3e8  egidl=0.1 egisl=0.1 alpha0=0  alpha1=0 alphaii=0 betaii0=0 betaii1=0  betaii2=0.1 esatii=1e7 lii=5e-10 sii0=0.5  sii1=0.1 sii2=0 siid=0 beta0=30  lintigen=0  ntgen=1 aigen=0 bigen=0  xrcrg1=12  xrcrg2=1  jss=1e-4 jsd=1e-4 jsws=0 jswgs=0  njs=1 njd=1 ijthsfwd=0.1 ijthdfwd=0.1  ijthsrev=0.1 ijthdrev=0.1 bvs=10 bvd=10  xjbvs=1 xjbvd=1 cjs=5e-4  cjd=5e-4 cjsws=5e-10 cjswgs=0 pbs=1  pbd=1 pbsws=1 mjs=0.5 mjd=0.5  mjsws2=0.33 mjswd2=0.33 mjsws=0.33 sjs=0  sjsws=0 sjswgs=0 mjs2=0.125 mjd2=0.125  cgsp=0 cgdp=0 cdsp=0 cfs=2.56e-11  cfd=2.65e-11 covs=2.5e-11 covd=2.5e-11 cgsl=0  ckappas=0.6 cgbo=0 cgbl=0  tbgasub=0.000702 tbgbsub=1108 kt1=0  kt1l=0 ute=0  utl=-0.0015 ua1=0.001032 ud1=0 ucste=-0.00478  at=-0.00156  ptwgt=0.004 tmexp=0 prt=0.001  iit=-0.5 tii=0 tgidl=-0.0003 igt=2.5  tcj=0 tcjsw=0 tcjswg=0 tpb=0  tpbsw=0 tpbswg=0 xtis=3 xtid=3  xtss=0.02 xtssws=0.02 xtsswgs=0.02 tnjts=0  tnjtssw=0 tnjtsswg=0  ef=1  lintnoi=0 em=4.1e7 noia=6.25e39 noib=3.125e24  noic=8.75e7 ntnoi=1
	* Unrecognized parameter "epsrox" -- ignored
Error on line 1217 : .model nfet nmos level=49  bulkmod=1  lmin=1e-8 lmax=3e-8  version=105.03 igcmod=1 igbmod=1  gidlmod=0 iimod=0 geomod=1  rdsmod=1 rgatemod=0 rgeomod=1  shmod=0 nqsmod=0 coremod=0  cgeomod=2 capmod=0 tnom=300.15  eot=8.4e-10 eotbox=1.4e-7 tfin=6.5e-9 toxp=1.15e-9  nbody=1e22 phig=4.6136 epsrox=3.9 epsrsub=11.9  easub=4.05 ni0sub=1.1e16 bg0sub=1.12 nc0sub=2.86e25  nsd=3e26 ngate=0 nfin=1 d=4e-8  nseg=5 l=1.1e-8  xl=0 lint=-2.5e-10 ll=0 lln=1  llc=0 dlc=0 dlbin=0 hfin=1.8e-8  fech=1 deltaw=0 deltawcv=0 fechcv=1  hepi=8e-9  tsili=7e-9 rhoc=4e-13 cratio=0.5 deltaprsd=0  sdterm=0 ldg=2e-9 epsrsp=3.9 tgate=7.5e-9  tmask=0 asiliend=0 arsdend=0 prsdend=0  nsde=9e25 rgeoa=1 rgeob=0 rgeoc=0  rgeod=0 rgeoe=0 cgeoa=1 cgeob=0  cgeoc=0 cgeod=0 cgeoe=1  cit=1.3e-5  cdsc=0.0252 cdscd=0.007 dvt0=0.01 dvt1=0.69  phin=0.05 eta0=0.39 dsub=0.9 k1rsce=0  lpe0=5e-9 dvtshift=0 qmfactor=0 qmtceniv=0  qmtcencv=0 etaqm=0.54 qm0=0.001143 pqm=0.66  qm0acc=0.001 pqmacc=0.66 delvfbacc=0  u0=0.065  etamob=2 up=0 lpa=1 ua=0.3  aua=0 bua=1e-7 eu=1.8 ud=0  aud=0 bud=5e-8 ucs=0 rdswmin=0  rdsw=100 ardsw=0 brdsw=1e-7 prwg=0  wr=1 rswmin=0 rsw=0 arsw=0  brsw=1e-7 rdwmin=0 rdw=0 ardw=0  brdw=1e-7 rgfin=0.001 rgext=0 rshs=0  vsat=1.6e5  deltavsat=1 ksativ=0.8 avsat=0 avsat1=0  bvsat=1e-7 bvsat1=1e-7 mexp=3 amexp=0  bmexp=1 ptwg=0 aptwg=0 bptwg=1e-7  pclm=0.2 pclmcv=0.013 apclm=0 bpclm=1e-7  pclmg=0 pclmgcv=0 vasat=0.6 vasatcv=0.2  pdibl1=1.3 pdibl2=0.0002 drout=1.06 pvag=1  fpitch=2.2e-8  rth0=0.01 cth0=1e-5 wth0=0  aigbinv=0.0111  bigbinv=0.03 cigbinv=0.006 eigbinv=1.1 nigbinv=1.2  aigbacc=0.0149 bigbacc=0.000949 cigbacc=0.075 nigbacc=3  aigc=0.0136  bigc=0.00171 cigc=0.075 nigc=1  dlcigs=0 dlcigd=0 aigs=0.0136 aigd=0.0136  bigs=0.00171 bigd=0.00171 cigs=0.075 cigd=0.075  poxedge=1  agidl=5.729e-12 agisl=5.729e-12 bgidl=3e8 bgisl=3e8  egidl=0.1 egisl=0.1 alpha0=0  alpha1=0 alphaii=0 betaii0=0 betaii1=0  betaii2=0.1 esatii=1e7 lii=5e-10 sii0=0.5  sii1=0.1 sii2=0 siid=0 beta0=30  lintigen=0  ntgen=1 aigen=0 bigen=0  xrcrg1=12  xrcrg2=1  jss=1e-4 jsd=1e-4 jsws=0 jswgs=0  njs=1 njd=1 ijthsfwd=0.1 ijthdfwd=0.1  ijthsrev=0.1 ijthdrev=0.1 bvs=10 bvd=10  xjbvs=1 xjbvd=1 cjs=5e-4  cjd=5e-4 cjsws=5e-10 cjswgs=0 pbs=1  pbd=1 pbsws=1 mjs=0.5 mjd=0.5  mjsws2=0.33 mjswd2=0.33 mjsws=0.33 sjs=0  sjsws=0 sjswgs=0 mjs2=0.125 mjd2=0.125  cgsp=0 cgdp=0 cdsp=0 cfs=2.56e-11  cfd=2.65e-11 covs=2.5e-11 covd=2.5e-11 cgsl=0  ckappas=0.6 cgbo=0 cgbl=0  tbgasub=0.000702 tbgbsub=1108 kt1=0  kt1l=0 ute=0  utl=-0.0015 ua1=0.001032 ud1=0 ucste=-0.00478  at=-0.00156  ptwgt=0.004 tmexp=0 prt=0.001  iit=-0.5 tii=0 tgidl=-0.0003 igt=2.5  tcj=0 tcjsw=0 tcjswg=0 tpb=0  tpbsw=0 tpbswg=0 xtis=3 xtid=3  xtss=0.02 xtssws=0.02 xtsswgs=0.02 tnjts=0  tnjtssw=0 tnjtsswg=0  ef=1  lintnoi=0 em=4.1e7 noia=6.25e39 noib=3.125e24  noic=8.75e7 ntnoi=1
	* Unrecognized parameter "epsrsub" -- ignored
Error on line 1217 : .model nfet nmos level=49  bulkmod=1  lmin=1e-8 lmax=3e-8  version=105.03 igcmod=1 igbmod=1  gidlmod=0 iimod=0 geomod=1  rdsmod=1 rgatemod=0 rgeomod=1  shmod=0 nqsmod=0 coremod=0  cgeomod=2 capmod=0 tnom=300.15  eot=8.4e-10 eotbox=1.4e-7 tfin=6.5e-9 toxp=1.15e-9  nbody=1e22 phig=4.6136 epsrox=3.9 epsrsub=11.9  easub=4.05 ni0sub=1.1e16 bg0sub=1.12 nc0sub=2.86e25  nsd=3e26 ngate=0 nfin=1 d=4e-8  nseg=5 l=1.1e-8  xl=0 lint=-2.5e-10 ll=0 lln=1  llc=0 dlc=0 dlbin=0 hfin=1.8e-8  fech=1 deltaw=0 deltawcv=0 fechcv=1  hepi=8e-9  tsili=7e-9 rhoc=4e-13 cratio=0.5 deltaprsd=0  sdterm=0 ldg=2e-9 epsrsp=3.9 tgate=7.5e-9  tmask=0 asiliend=0 arsdend=0 prsdend=0  nsde=9e25 rgeoa=1 rgeob=0 rgeoc=0  rgeod=0 rgeoe=0 cgeoa=1 cgeob=0  cgeoc=0 cgeod=0 cgeoe=1  cit=1.3e-5  cdsc=0.0252 cdscd=0.007 dvt0=0.01 dvt1=0.69  phin=0.05 eta0=0.39 dsub=0.9 k1rsce=0  lpe0=5e-9 dvtshift=0 qmfactor=0 qmtceniv=0  qmtcencv=0 etaqm=0.54 qm0=0.001143 pqm=0.66  qm0acc=0.001 pqmacc=0.66 delvfbacc=0  u0=0.065  etamob=2 up=0 lpa=1 ua=0.3  aua=0 bua=1e-7 eu=1.8 ud=0  aud=0 bud=5e-8 ucs=0 rdswmin=0  rdsw=100 ardsw=0 brdsw=1e-7 prwg=0  wr=1 rswmin=0 rsw=0 arsw=0  brsw=1e-7 rdwmin=0 rdw=0 ardw=0  brdw=1e-7 rgfin=0.001 rgext=0 rshs=0  vsat=1.6e5  deltavsat=1 ksativ=0.8 avsat=0 avsat1=0  bvsat=1e-7 bvsat1=1e-7 mexp=3 amexp=0  bmexp=1 ptwg=0 aptwg=0 bptwg=1e-7  pclm=0.2 pclmcv=0.013 apclm=0 bpclm=1e-7  pclmg=0 pclmgcv=0 vasat=0.6 vasatcv=0.2  pdibl1=1.3 pdibl2=0.0002 drout=1.06 pvag=1  fpitch=2.2e-8  rth0=0.01 cth0=1e-5 wth0=0  aigbinv=0.0111  bigbinv=0.03 cigbinv=0.006 eigbinv=1.1 nigbinv=1.2  aigbacc=0.0149 bigbacc=0.000949 cigbacc=0.075 nigbacc=3  aigc=0.0136  bigc=0.00171 cigc=0.075 nigc=1  dlcigs=0 dlcigd=0 aigs=0.0136 aigd=0.0136  bigs=0.00171 bigd=0.00171 cigs=0.075 cigd=0.075  poxedge=1  agidl=5.729e-12 agisl=5.729e-12 bgidl=3e8 bgisl=3e8  egidl=0.1 egisl=0.1 alpha0=0  alpha1=0 alphaii=0 betaii0=0 betaii1=0  betaii2=0.1 esatii=1e7 lii=5e-10 sii0=0.5  sii1=0.1 sii2=0 siid=0 beta0=30  lintigen=0  ntgen=1 aigen=0 bigen=0  xrcrg1=12  xrcrg2=1  jss=1e-4 jsd=1e-4 jsws=0 jswgs=0  njs=1 njd=1 ijthsfwd=0.1 ijthdfwd=0.1  ijthsrev=0.1 ijthdrev=0.1 bvs=10 bvd=10  xjbvs=1 xjbvd=1 cjs=5e-4  cjd=5e-4 cjsws=5e-10 cjswgs=0 pbs=1  pbd=1 pbsws=1 mjs=0.5 mjd=0.5  mjsws2=0.33 mjswd2=0.33 mjsws=0.33 sjs=0  sjsws=0 sjswgs=0 mjs2=0.125 mjd2=0.125  cgsp=0 cgdp=0 cdsp=0 cfs=2.56e-11  cfd=2.65e-11 covs=2.5e-11 covd=2.5e-11 cgsl=0  ckappas=0.6 cgbo=0 cgbl=0  tbgasub=0.000702 tbgbsub=1108 kt1=0  kt1l=0 ute=0  utl=-0.0015 ua1=0.001032 ud1=0 ucste=-0.00478  at=-0.00156  ptwgt=0.004 tmexp=0 prt=0.001  iit=-0.5 tii=0 tgidl=-0.0003 igt=2.5  tcj=0 tcjsw=0 tcjswg=0 tpb=0  tpbsw=0 tpbswg=0 xtis=3 xtid=3  xtss=0.02 xtssws=0.02 xtsswgs=0.02 tnjts=0  tnjtssw=0 tnjtsswg=0  ef=1  lintnoi=0 em=4.1e7 noia=6.25e39 noib=3.125e24  noic=8.75e7 ntnoi=1
	* Unrecognized parameter "easub" -- ignored
Error on line 1217 : .model nfet nmos level=49  bulkmod=1  lmin=1e-8 lmax=3e-8  version=105.03 igcmod=1 igbmod=1  gidlmod=0 iimod=0 geomod=1  rdsmod=1 rgatemod=0 rgeomod=1  shmod=0 nqsmod=0 coremod=0  cgeomod=2 capmod=0 tnom=300.15  eot=8.4e-10 eotbox=1.4e-7 tfin=6.5e-9 toxp=1.15e-9  nbody=1e22 phig=4.6136 epsrox=3.9 epsrsub=11.9  easub=4.05 ni0sub=1.1e16 bg0sub=1.12 nc0sub=2.86e25  nsd=3e26 ngate=0 nfin=1 d=4e-8  nseg=5 l=1.1e-8  xl=0 lint=-2.5e-10 ll=0 lln=1  llc=0 dlc=0 dlbin=0 hfin=1.8e-8  fech=1 deltaw=0 deltawcv=0 fechcv=1  hepi=8e-9  tsili=7e-9 rhoc=4e-13 cratio=0.5 deltaprsd=0  sdterm=0 ldg=2e-9 epsrsp=3.9 tgate=7.5e-9  tmask=0 asiliend=0 arsdend=0 prsdend=0  nsde=9e25 rgeoa=1 rgeob=0 rgeoc=0  rgeod=0 rgeoe=0 cgeoa=1 cgeob=0  cgeoc=0 cgeod=0 cgeoe=1  cit=1.3e-5  cdsc=0.0252 cdscd=0.007 dvt0=0.01 dvt1=0.69  phin=0.05 eta0=0.39 dsub=0.9 k1rsce=0  lpe0=5e-9 dvtshift=0 qmfactor=0 qmtceniv=0  qmtcencv=0 etaqm=0.54 qm0=0.001143 pqm=0.66  qm0acc=0.001 pqmacc=0.66 delvfbacc=0  u0=0.065  etamob=2 up=0 lpa=1 ua=0.3  aua=0 bua=1e-7 eu=1.8 ud=0  aud=0 bud=5e-8 ucs=0 rdswmin=0  rdsw=100 ardsw=0 brdsw=1e-7 prwg=0  wr=1 rswmin=0 rsw=0 arsw=0  brsw=1e-7 rdwmin=0 rdw=0 ardw=0  brdw=1e-7 rgfin=0.001 rgext=0 rshs=0  vsat=1.6e5  deltavsat=1 ksativ=0.8 avsat=0 avsat1=0  bvsat=1e-7 bvsat1=1e-7 mexp=3 amexp=0  bmexp=1 ptwg=0 aptwg=0 bptwg=1e-7  pclm=0.2 pclmcv=0.013 apclm=0 bpclm=1e-7  pclmg=0 pclmgcv=0 vasat=0.6 vasatcv=0.2  pdibl1=1.3 pdibl2=0.0002 drout=1.06 pvag=1  fpitch=2.2e-8  rth0=0.01 cth0=1e-5 wth0=0  aigbinv=0.0111  bigbinv=0.03 cigbinv=0.006 eigbinv=1.1 nigbinv=1.2  aigbacc=0.0149 bigbacc=0.000949 cigbacc=0.075 nigbacc=3  aigc=0.0136  bigc=0.00171 cigc=0.075 nigc=1  dlcigs=0 dlcigd=0 aigs=0.0136 aigd=0.0136  bigs=0.00171 bigd=0.00171 cigs=0.075 cigd=0.075  poxedge=1  agidl=5.729e-12 agisl=5.729e-12 bgidl=3e8 bgisl=3e8  egidl=0.1 egisl=0.1 alpha0=0  alpha1=0 alphaii=0 betaii0=0 betaii1=0  betaii2=0.1 esatii=1e7 lii=5e-10 sii0=0.5  sii1=0.1 sii2=0 siid=0 beta0=30  lintigen=0  ntgen=1 aigen=0 bigen=0  xrcrg1=12  xrcrg2=1  jss=1e-4 jsd=1e-4 jsws=0 jswgs=0  njs=1 njd=1 ijthsfwd=0.1 ijthdfwd=0.1  ijthsrev=0.1 ijthdrev=0.1 bvs=10 bvd=10  xjbvs=1 xjbvd=1 cjs=5e-4  cjd=5e-4 cjsws=5e-10 cjswgs=0 pbs=1  pbd=1 pbsws=1 mjs=0.5 mjd=0.5  mjsws2=0.33 mjswd2=0.33 mjsws=0.33 sjs=0  sjsws=0 sjswgs=0 mjs2=0.125 mjd2=0.125  cgsp=0 cgdp=0 cdsp=0 cfs=2.56e-11  cfd=2.65e-11 covs=2.5e-11 covd=2.5e-11 cgsl=0  ckappas=0.6 cgbo=0 cgbl=0  tbgasub=0.000702 tbgbsub=1108 kt1=0  kt1l=0 ute=0  utl=-0.0015 ua1=0.001032 ud1=0 ucste=-0.00478  at=-0.00156  ptwgt=0.004 tmexp=0 prt=0.001  iit=-0.5 tii=0 tgidl=-0.0003 igt=2.5  tcj=0 tcjsw=0 tcjswg=0 tpb=0  tpbsw=0 tpbswg=0 xtis=3 xtid=3  xtss=0.02 xtssws=0.02 xtsswgs=0.02 tnjts=0  tnjtssw=0 tnjtsswg=0  ef=1  lintnoi=0 em=4.1e7 noia=6.25e39 noib=3.125e24  noic=8.75e7 ntnoi=1
	* Unrecognized parameter "ni0sub" -- ignored
Error on line 1217 : .model nfet nmos level=49  bulkmod=1  lmin=1e-8 lmax=3e-8  version=105.03 igcmod=1 igbmod=1  gidlmod=0 iimod=0 geomod=1  rdsmod=1 rgatemod=0 rgeomod=1  shmod=0 nqsmod=0 coremod=0  cgeomod=2 capmod=0 tnom=300.15  eot=8.4e-10 eotbox=1.4e-7 tfin=6.5e-9 toxp=1.15e-9  nbody=1e22 phig=4.6136 epsrox=3.9 epsrsub=11.9  easub=4.05 ni0sub=1.1e16 bg0sub=1.12 nc0sub=2.86e25  nsd=3e26 ngate=0 nfin=1 d=4e-8  nseg=5 l=1.1e-8  xl=0 lint=-2.5e-10 ll=0 lln=1  llc=0 dlc=0 dlbin=0 hfin=1.8e-8  fech=1 deltaw=0 deltawcv=0 fechcv=1  hepi=8e-9  tsili=7e-9 rhoc=4e-13 cratio=0.5 deltaprsd=0  sdterm=0 ldg=2e-9 epsrsp=3.9 tgate=7.5e-9  tmask=0 asiliend=0 arsdend=0 prsdend=0  nsde=9e25 rgeoa=1 rgeob=0 rgeoc=0  rgeod=0 rgeoe=0 cgeoa=1 cgeob=0  cgeoc=0 cgeod=0 cgeoe=1  cit=1.3e-5  cdsc=0.0252 cdscd=0.007 dvt0=0.01 dvt1=0.69  phin=0.05 eta0=0.39 dsub=0.9 k1rsce=0  lpe0=5e-9 dvtshift=0 qmfactor=0 qmtceniv=0  qmtcencv=0 etaqm=0.54 qm0=0.001143 pqm=0.66  qm0acc=0.001 pqmacc=0.66 delvfbacc=0  u0=0.065  etamob=2 up=0 lpa=1 ua=0.3  aua=0 bua=1e-7 eu=1.8 ud=0  aud=0 bud=5e-8 ucs=0 rdswmin=0  rdsw=100 ardsw=0 brdsw=1e-7 prwg=0  wr=1 rswmin=0 rsw=0 arsw=0  brsw=1e-7 rdwmin=0 rdw=0 ardw=0  brdw=1e-7 rgfin=0.001 rgext=0 rshs=0  vsat=1.6e5  deltavsat=1 ksativ=0.8 avsat=0 avsat1=0  bvsat=1e-7 bvsat1=1e-7 mexp=3 amexp=0  bmexp=1 ptwg=0 aptwg=0 bptwg=1e-7  pclm=0.2 pclmcv=0.013 apclm=0 bpclm=1e-7  pclmg=0 pclmgcv=0 vasat=0.6 vasatcv=0.2  pdibl1=1.3 pdibl2=0.0002 drout=1.06 pvag=1  fpitch=2.2e-8  rth0=0.01 cth0=1e-5 wth0=0  aigbinv=0.0111  bigbinv=0.03 cigbinv=0.006 eigbinv=1.1 nigbinv=1.2  aigbacc=0.0149 bigbacc=0.000949 cigbacc=0.075 nigbacc=3  aigc=0.0136  bigc=0.00171 cigc=0.075 nigc=1  dlcigs=0 dlcigd=0 aigs=0.0136 aigd=0.0136  bigs=0.00171 bigd=0.00171 cigs=0.075 cigd=0.075  poxedge=1  agidl=5.729e-12 agisl=5.729e-12 bgidl=3e8 bgisl=3e8  egidl=0.1 egisl=0.1 alpha0=0  alpha1=0 alphaii=0 betaii0=0 betaii1=0  betaii2=0.1 esatii=1e7 lii=5e-10 sii0=0.5  sii1=0.1 sii2=0 siid=0 beta0=30  lintigen=0  ntgen=1 aigen=0 bigen=0  xrcrg1=12  xrcrg2=1  jss=1e-4 jsd=1e-4 jsws=0 jswgs=0  njs=1 njd=1 ijthsfwd=0.1 ijthdfwd=0.1  ijthsrev=0.1 ijthdrev=0.1 bvs=10 bvd=10  xjbvs=1 xjbvd=1 cjs=5e-4  cjd=5e-4 cjsws=5e-10 cjswgs=0 pbs=1  pbd=1 pbsws=1 mjs=0.5 mjd=0.5  mjsws2=0.33 mjswd2=0.33 mjsws=0.33 sjs=0  sjsws=0 sjswgs=0 mjs2=0.125 mjd2=0.125  cgsp=0 cgdp=0 cdsp=0 cfs=2.56e-11  cfd=2.65e-11 covs=2.5e-11 covd=2.5e-11 cgsl=0  ckappas=0.6 cgbo=0 cgbl=0  tbgasub=0.000702 tbgbsub=1108 kt1=0  kt1l=0 ute=0  utl=-0.0015 ua1=0.001032 ud1=0 ucste=-0.00478  at=-0.00156  ptwgt=0.004 tmexp=0 prt=0.001  iit=-0.5 tii=0 tgidl=-0.0003 igt=2.5  tcj=0 tcjsw=0 tcjswg=0 tpb=0  tpbsw=0 tpbswg=0 xtis=3 xtid=3  xtss=0.02 xtssws=0.02 xtsswgs=0.02 tnjts=0  tnjtssw=0 tnjtsswg=0  ef=1  lintnoi=0 em=4.1e7 noia=6.25e39 noib=3.125e24  noic=8.75e7 ntnoi=1
	* Unrecognized parameter "bg0sub" -- ignored
Error on line 1217 : .model nfet nmos level=49  bulkmod=1  lmin=1e-8 lmax=3e-8  version=105.03 igcmod=1 igbmod=1  gidlmod=0 iimod=0 geomod=1  rdsmod=1 rgatemod=0 rgeomod=1  shmod=0 nqsmod=0 coremod=0  cgeomod=2 capmod=0 tnom=300.15  eot=8.4e-10 eotbox=1.4e-7 tfin=6.5e-9 toxp=1.15e-9  nbody=1e22 phig=4.6136 epsrox=3.9 epsrsub=11.9  easub=4.05 ni0sub=1.1e16 bg0sub=1.12 nc0sub=2.86e25  nsd=3e26 ngate=0 nfin=1 d=4e-8  nseg=5 l=1.1e-8  xl=0 lint=-2.5e-10 ll=0 lln=1  llc=0 dlc=0 dlbin=0 hfin=1.8e-8  fech=1 deltaw=0 deltawcv=0 fechcv=1  hepi=8e-9  tsili=7e-9 rhoc=4e-13 cratio=0.5 deltaprsd=0  sdterm=0 ldg=2e-9 epsrsp=3.9 tgate=7.5e-9  tmask=0 asiliend=0 arsdend=0 prsdend=0  nsde=9e25 rgeoa=1 rgeob=0 rgeoc=0  rgeod=0 rgeoe=0 cgeoa=1 cgeob=0  cgeoc=0 cgeod=0 cgeoe=1  cit=1.3e-5  cdsc=0.0252 cdscd=0.007 dvt0=0.01 dvt1=0.69  phin=0.05 eta0=0.39 dsub=0.9 k1rsce=0  lpe0=5e-9 dvtshift=0 qmfactor=0 qmtceniv=0  qmtcencv=0 etaqm=0.54 qm0=0.001143 pqm=0.66  qm0acc=0.001 pqmacc=0.66 delvfbacc=0  u0=0.065  etamob=2 up=0 lpa=1 ua=0.3  aua=0 bua=1e-7 eu=1.8 ud=0  aud=0 bud=5e-8 ucs=0 rdswmin=0  rdsw=100 ardsw=0 brdsw=1e-7 prwg=0  wr=1 rswmin=0 rsw=0 arsw=0  brsw=1e-7 rdwmin=0 rdw=0 ardw=0  brdw=1e-7 rgfin=0.001 rgext=0 rshs=0  vsat=1.6e5  deltavsat=1 ksativ=0.8 avsat=0 avsat1=0  bvsat=1e-7 bvsat1=1e-7 mexp=3 amexp=0  bmexp=1 ptwg=0 aptwg=0 bptwg=1e-7  pclm=0.2 pclmcv=0.013 apclm=0 bpclm=1e-7  pclmg=0 pclmgcv=0 vasat=0.6 vasatcv=0.2  pdibl1=1.3 pdibl2=0.0002 drout=1.06 pvag=1  fpitch=2.2e-8  rth0=0.01 cth0=1e-5 wth0=0  aigbinv=0.0111  bigbinv=0.03 cigbinv=0.006 eigbinv=1.1 nigbinv=1.2  aigbacc=0.0149 bigbacc=0.000949 cigbacc=0.075 nigbacc=3  aigc=0.0136  bigc=0.00171 cigc=0.075 nigc=1  dlcigs=0 dlcigd=0 aigs=0.0136 aigd=0.0136  bigs=0.00171 bigd=0.00171 cigs=0.075 cigd=0.075  poxedge=1  agidl=5.729e-12 agisl=5.729e-12 bgidl=3e8 bgisl=3e8  egidl=0.1 egisl=0.1 alpha0=0  alpha1=0 alphaii=0 betaii0=0 betaii1=0  betaii2=0.1 esatii=1e7 lii=5e-10 sii0=0.5  sii1=0.1 sii2=0 siid=0 beta0=30  lintigen=0  ntgen=1 aigen=0 bigen=0  xrcrg1=12  xrcrg2=1  jss=1e-4 jsd=1e-4 jsws=0 jswgs=0  njs=1 njd=1 ijthsfwd=0.1 ijthdfwd=0.1  ijthsrev=0.1 ijthdrev=0.1 bvs=10 bvd=10  xjbvs=1 xjbvd=1 cjs=5e-4  cjd=5e-4 cjsws=5e-10 cjswgs=0 pbs=1  pbd=1 pbsws=1 mjs=0.5 mjd=0.5  mjsws2=0.33 mjswd2=0.33 mjsws=0.33 sjs=0  sjsws=0 sjswgs=0 mjs2=0.125 mjd2=0.125  cgsp=0 cgdp=0 cdsp=0 cfs=2.56e-11  cfd=2.65e-11 covs=2.5e-11 covd=2.5e-11 cgsl=0  ckappas=0.6 cgbo=0 cgbl=0  tbgasub=0.000702 tbgbsub=1108 kt1=0  kt1l=0 ute=0  utl=-0.0015 ua1=0.001032 ud1=0 ucste=-0.00478  at=-0.00156  ptwgt=0.004 tmexp=0 prt=0.001  iit=-0.5 tii=0 tgidl=-0.0003 igt=2.5  tcj=0 tcjsw=0 tcjswg=0 tpb=0  tpbsw=0 tpbswg=0 xtis=3 xtid=3  xtss=0.02 xtssws=0.02 xtsswgs=0.02 tnjts=0  tnjtssw=0 tnjtsswg=0  ef=1  lintnoi=0 em=4.1e7 noia=6.25e39 noib=3.125e24  noic=8.75e7 ntnoi=1
	* Unrecognized parameter "nc0sub" -- ignored
Error on line 1217 : .model nfet nmos level=49  bulkmod=1  lmin=1e-8 lmax=3e-8  version=105.03 igcmod=1 igbmod=1  gidlmod=0 iimod=0 geomod=1  rdsmod=1 rgatemod=0 rgeomod=1  shmod=0 nqsmod=0 coremod=0  cgeomod=2 capmod=0 tnom=300.15  eot=8.4e-10 eotbox=1.4e-7 tfin=6.5e-9 toxp=1.15e-9  nbody=1e22 phig=4.6136 epsrox=3.9 epsrsub=11.9  easub=4.05 ni0sub=1.1e16 bg0sub=1.12 nc0sub=2.86e25  nsd=3e26 ngate=0 nfin=1 d=4e-8  nseg=5 l=1.1e-8  xl=0 lint=-2.5e-10 ll=0 lln=1  llc=0 dlc=0 dlbin=0 hfin=1.8e-8  fech=1 deltaw=0 deltawcv=0 fechcv=1  hepi=8e-9  tsili=7e-9 rhoc=4e-13 cratio=0.5 deltaprsd=0  sdterm=0 ldg=2e-9 epsrsp=3.9 tgate=7.5e-9  tmask=0 asiliend=0 arsdend=0 prsdend=0  nsde=9e25 rgeoa=1 rgeob=0 rgeoc=0  rgeod=0 rgeoe=0 cgeoa=1 cgeob=0  cgeoc=0 cgeod=0 cgeoe=1  cit=1.3e-5  cdsc=0.0252 cdscd=0.007 dvt0=0.01 dvt1=0.69  phin=0.05 eta0=0.39 dsub=0.9 k1rsce=0  lpe0=5e-9 dvtshift=0 qmfactor=0 qmtceniv=0  qmtcencv=0 etaqm=0.54 qm0=0.001143 pqm=0.66  qm0acc=0.001 pqmacc=0.66 delvfbacc=0  u0=0.065  etamob=2 up=0 lpa=1 ua=0.3  aua=0 bua=1e-7 eu=1.8 ud=0  aud=0 bud=5e-8 ucs=0 rdswmin=0  rdsw=100 ardsw=0 brdsw=1e-7 prwg=0  wr=1 rswmin=0 rsw=0 arsw=0  brsw=1e-7 rdwmin=0 rdw=0 ardw=0  brdw=1e-7 rgfin=0.001 rgext=0 rshs=0  vsat=1.6e5  deltavsat=1 ksativ=0.8 avsat=0 avsat1=0  bvsat=1e-7 bvsat1=1e-7 mexp=3 amexp=0  bmexp=1 ptwg=0 aptwg=0 bptwg=1e-7  pclm=0.2 pclmcv=0.013 apclm=0 bpclm=1e-7  pclmg=0 pclmgcv=0 vasat=0.6 vasatcv=0.2  pdibl1=1.3 pdibl2=0.0002 drout=1.06 pvag=1  fpitch=2.2e-8  rth0=0.01 cth0=1e-5 wth0=0  aigbinv=0.0111  bigbinv=0.03 cigbinv=0.006 eigbinv=1.1 nigbinv=1.2  aigbacc=0.0149 bigbacc=0.000949 cigbacc=0.075 nigbacc=3  aigc=0.0136  bigc=0.00171 cigc=0.075 nigc=1  dlcigs=0 dlcigd=0 aigs=0.0136 aigd=0.0136  bigs=0.00171 bigd=0.00171 cigs=0.075 cigd=0.075  poxedge=1  agidl=5.729e-12 agisl=5.729e-12 bgidl=3e8 bgisl=3e8  egidl=0.1 egisl=0.1 alpha0=0  alpha1=0 alphaii=0 betaii0=0 betaii1=0  betaii2=0.1 esatii=1e7 lii=5e-10 sii0=0.5  sii1=0.1 sii2=0 siid=0 beta0=30  lintigen=0  ntgen=1 aigen=0 bigen=0  xrcrg1=12  xrcrg2=1  jss=1e-4 jsd=1e-4 jsws=0 jswgs=0  njs=1 njd=1 ijthsfwd=0.1 ijthdfwd=0.1  ijthsrev=0.1 ijthdrev=0.1 bvs=10 bvd=10  xjbvs=1 xjbvd=1 cjs=5e-4  cjd=5e-4 cjsws=5e-10 cjswgs=0 pbs=1  pbd=1 pbsws=1 mjs=0.5 mjd=0.5  mjsws2=0.33 mjswd2=0.33 mjsws=0.33 sjs=0  sjsws=0 sjswgs=0 mjs2=0.125 mjd2=0.125  cgsp=0 cgdp=0 cdsp=0 cfs=2.56e-11  cfd=2.65e-11 covs=2.5e-11 covd=2.5e-11 cgsl=0  ckappas=0.6 cgbo=0 cgbl=0  tbgasub=0.000702 tbgbsub=1108 kt1=0  kt1l=0 ute=0  utl=-0.0015 ua1=0.001032 ud1=0 ucste=-0.00478  at=-0.00156  ptwgt=0.004 tmexp=0 prt=0.001  iit=-0.5 tii=0 tgidl=-0.0003 igt=2.5  tcj=0 tcjsw=0 tcjswg=0 tpb=0  tpbsw=0 tpbswg=0 xtis=3 xtid=3  xtss=0.02 xtssws=0.02 xtsswgs=0.02 tnjts=0  tnjtssw=0 tnjtsswg=0  ef=1  lintnoi=0 em=4.1e7 noia=6.25e39 noib=3.125e24  noic=8.75e7 ntnoi=1
	* Unrecognized parameter "nsd" -- ignored
Error on line 1217 : .model nfet nmos level=49  bulkmod=1  lmin=1e-8 lmax=3e-8  version=105.03 igcmod=1 igbmod=1  gidlmod=0 iimod=0 geomod=1  rdsmod=1 rgatemod=0 rgeomod=1  shmod=0 nqsmod=0 coremod=0  cgeomod=2 capmod=0 tnom=300.15  eot=8.4e-10 eotbox=1.4e-7 tfin=6.5e-9 toxp=1.15e-9  nbody=1e22 phig=4.6136 epsrox=3.9 epsrsub=11.9  easub=4.05 ni0sub=1.1e16 bg0sub=1.12 nc0sub=2.86e25  nsd=3e26 ngate=0 nfin=1 d=4e-8  nseg=5 l=1.1e-8  xl=0 lint=-2.5e-10 ll=0 lln=1  llc=0 dlc=0 dlbin=0 hfin=1.8e-8  fech=1 deltaw=0 deltawcv=0 fechcv=1  hepi=8e-9  tsili=7e-9 rhoc=4e-13 cratio=0.5 deltaprsd=0  sdterm=0 ldg=2e-9 epsrsp=3.9 tgate=7.5e-9  tmask=0 asiliend=0 arsdend=0 prsdend=0  nsde=9e25 rgeoa=1 rgeob=0 rgeoc=0  rgeod=0 rgeoe=0 cgeoa=1 cgeob=0  cgeoc=0 cgeod=0 cgeoe=1  cit=1.3e-5  cdsc=0.0252 cdscd=0.007 dvt0=0.01 dvt1=0.69  phin=0.05 eta0=0.39 dsub=0.9 k1rsce=0  lpe0=5e-9 dvtshift=0 qmfactor=0 qmtceniv=0  qmtcencv=0 etaqm=0.54 qm0=0.001143 pqm=0.66  qm0acc=0.001 pqmacc=0.66 delvfbacc=0  u0=0.065  etamob=2 up=0 lpa=1 ua=0.3  aua=0 bua=1e-7 eu=1.8 ud=0  aud=0 bud=5e-8 ucs=0 rdswmin=0  rdsw=100 ardsw=0 brdsw=1e-7 prwg=0  wr=1 rswmin=0 rsw=0 arsw=0  brsw=1e-7 rdwmin=0 rdw=0 ardw=0  brdw=1e-7 rgfin=0.001 rgext=0 rshs=0  vsat=1.6e5  deltavsat=1 ksativ=0.8 avsat=0 avsat1=0  bvsat=1e-7 bvsat1=1e-7 mexp=3 amexp=0  bmexp=1 ptwg=0 aptwg=0 bptwg=1e-7  pclm=0.2 pclmcv=0.013 apclm=0 bpclm=1e-7  pclmg=0 pclmgcv=0 vasat=0.6 vasatcv=0.2  pdibl1=1.3 pdibl2=0.0002 drout=1.06 pvag=1  fpitch=2.2e-8  rth0=0.01 cth0=1e-5 wth0=0  aigbinv=0.0111  bigbinv=0.03 cigbinv=0.006 eigbinv=1.1 nigbinv=1.2  aigbacc=0.0149 bigbacc=0.000949 cigbacc=0.075 nigbacc=3  aigc=0.0136  bigc=0.00171 cigc=0.075 nigc=1  dlcigs=0 dlcigd=0 aigs=0.0136 aigd=0.0136  bigs=0.00171 bigd=0.00171 cigs=0.075 cigd=0.075  poxedge=1  agidl=5.729e-12 agisl=5.729e-12 bgidl=3e8 bgisl=3e8  egidl=0.1 egisl=0.1 alpha0=0  alpha1=0 alphaii=0 betaii0=0 betaii1=0  betaii2=0.1 esatii=1e7 lii=5e-10 sii0=0.5  sii1=0.1 sii2=0 siid=0 beta0=30  lintigen=0  ntgen=1 aigen=0 bigen=0  xrcrg1=12  xrcrg2=1  jss=1e-4 jsd=1e-4 jsws=0 jswgs=0  njs=1 njd=1 ijthsfwd=0.1 ijthdfwd=0.1  ijthsrev=0.1 ijthdrev=0.1 bvs=10 bvd=10  xjbvs=1 xjbvd=1 cjs=5e-4  cjd=5e-4 cjsws=5e-10 cjswgs=0 pbs=1  pbd=1 pbsws=1 mjs=0.5 mjd=0.5  mjsws2=0.33 mjswd2=0.33 mjsws=0.33 sjs=0  sjsws=0 sjswgs=0 mjs2=0.125 mjd2=0.125  cgsp=0 cgdp=0 cdsp=0 cfs=2.56e-11  cfd=2.65e-11 covs=2.5e-11 covd=2.5e-11 cgsl=0  ckappas=0.6 cgbo=0 cgbl=0  tbgasub=0.000702 tbgbsub=1108 kt1=0  kt1l=0 ute=0  utl=-0.0015 ua1=0.001032 ud1=0 ucste=-0.00478  at=-0.00156  ptwgt=0.004 tmexp=0 prt=0.001  iit=-0.5 tii=0 tgidl=-0.0003 igt=2.5  tcj=0 tcjsw=0 tcjswg=0 tpb=0  tpbsw=0 tpbswg=0 xtis=3 xtid=3  xtss=0.02 xtssws=0.02 xtsswgs=0.02 tnjts=0  tnjtssw=0 tnjtsswg=0  ef=1  lintnoi=0 em=4.1e7 noia=6.25e39 noib=3.125e24  noic=8.75e7 ntnoi=1
	* Unrecognized parameter "nfin" -- ignored
Error on line 1217 : .model nfet nmos level=49  bulkmod=1  lmin=1e-8 lmax=3e-8  version=105.03 igcmod=1 igbmod=1  gidlmod=0 iimod=0 geomod=1  rdsmod=1 rgatemod=0 rgeomod=1  shmod=0 nqsmod=0 coremod=0  cgeomod=2 capmod=0 tnom=300.15  eot=8.4e-10 eotbox=1.4e-7 tfin=6.5e-9 toxp=1.15e-9  nbody=1e22 phig=4.6136 epsrox=3.9 epsrsub=11.9  easub=4.05 ni0sub=1.1e16 bg0sub=1.12 nc0sub=2.86e25  nsd=3e26 ngate=0 nfin=1 d=4e-8  nseg=5 l=1.1e-8  xl=0 lint=-2.5e-10 ll=0 lln=1  llc=0 dlc=0 dlbin=0 hfin=1.8e-8  fech=1 deltaw=0 deltawcv=0 fechcv=1  hepi=8e-9  tsili=7e-9 rhoc=4e-13 cratio=0.5 deltaprsd=0  sdterm=0 ldg=2e-9 epsrsp=3.9 tgate=7.5e-9  tmask=0 asiliend=0 arsdend=0 prsdend=0  nsde=9e25 rgeoa=1 rgeob=0 rgeoc=0  rgeod=0 rgeoe=0 cgeoa=1 cgeob=0  cgeoc=0 cgeod=0 cgeoe=1  cit=1.3e-5  cdsc=0.0252 cdscd=0.007 dvt0=0.01 dvt1=0.69  phin=0.05 eta0=0.39 dsub=0.9 k1rsce=0  lpe0=5e-9 dvtshift=0 qmfactor=0 qmtceniv=0  qmtcencv=0 etaqm=0.54 qm0=0.001143 pqm=0.66  qm0acc=0.001 pqmacc=0.66 delvfbacc=0  u0=0.065  etamob=2 up=0 lpa=1 ua=0.3  aua=0 bua=1e-7 eu=1.8 ud=0  aud=0 bud=5e-8 ucs=0 rdswmin=0  rdsw=100 ardsw=0 brdsw=1e-7 prwg=0  wr=1 rswmin=0 rsw=0 arsw=0  brsw=1e-7 rdwmin=0 rdw=0 ardw=0  brdw=1e-7 rgfin=0.001 rgext=0 rshs=0  vsat=1.6e5  deltavsat=1 ksativ=0.8 avsat=0 avsat1=0  bvsat=1e-7 bvsat1=1e-7 mexp=3 amexp=0  bmexp=1 ptwg=0 aptwg=0 bptwg=1e-7  pclm=0.2 pclmcv=0.013 apclm=0 bpclm=1e-7  pclmg=0 pclmgcv=0 vasat=0.6 vasatcv=0.2  pdibl1=1.3 pdibl2=0.0002 drout=1.06 pvag=1  fpitch=2.2e-8  rth0=0.01 cth0=1e-5 wth0=0  aigbinv=0.0111  bigbinv=0.03 cigbinv=0.006 eigbinv=1.1 nigbinv=1.2  aigbacc=0.0149 bigbacc=0.000949 cigbacc=0.075 nigbacc=3  aigc=0.0136  bigc=0.00171 cigc=0.075 nigc=1  dlcigs=0 dlcigd=0 aigs=0.0136 aigd=0.0136  bigs=0.00171 bigd=0.00171 cigs=0.075 cigd=0.075  poxedge=1  agidl=5.729e-12 agisl=5.729e-12 bgidl=3e8 bgisl=3e8  egidl=0.1 egisl=0.1 alpha0=0  alpha1=0 alphaii=0 betaii0=0 betaii1=0  betaii2=0.1 esatii=1e7 lii=5e-10 sii0=0.5  sii1=0.1 sii2=0 siid=0 beta0=30  lintigen=0  ntgen=1 aigen=0 bigen=0  xrcrg1=12  xrcrg2=1  jss=1e-4 jsd=1e-4 jsws=0 jswgs=0  njs=1 njd=1 ijthsfwd=0.1 ijthdfwd=0.1  ijthsrev=0.1 ijthdrev=0.1 bvs=10 bvd=10  xjbvs=1 xjbvd=1 cjs=5e-4  cjd=5e-4 cjsws=5e-10 cjswgs=0 pbs=1  pbd=1 pbsws=1 mjs=0.5 mjd=0.5  mjsws2=0.33 mjswd2=0.33 mjsws=0.33 sjs=0  sjsws=0 sjswgs=0 mjs2=0.125 mjd2=0.125  cgsp=0 cgdp=0 cdsp=0 cfs=2.56e-11  cfd=2.65e-11 covs=2.5e-11 covd=2.5e-11 cgsl=0  ckappas=0.6 cgbo=0 cgbl=0  tbgasub=0.000702 tbgbsub=1108 kt1=0  kt1l=0 ute=0  utl=-0.0015 ua1=0.001032 ud1=0 ucste=-0.00478  at=-0.00156  ptwgt=0.004 tmexp=0 prt=0.001  iit=-0.5 tii=0 tgidl=-0.0003 igt=2.5  tcj=0 tcjsw=0 tcjswg=0 tpb=0  tpbsw=0 tpbswg=0 xtis=3 xtid=3  xtss=0.02 xtssws=0.02 xtsswgs=0.02 tnjts=0  tnjtssw=0 tnjtsswg=0  ef=1  lintnoi=0 em=4.1e7 noia=6.25e39 noib=3.125e24  noic=8.75e7 ntnoi=1
	* Unrecognized parameter "d" -- ignored
[...]
	* Unrecognized parameter "xtss" -- ignored
Error on line 1217 : .model nfet nmos level=49  bulkmod=1  lmin=1e-8 lmax=3e-8  version=105.03 igcmod=1 igbmod=1  gidlmod=0 iimod=0 geomod=1  rdsmod=1 rgatemod=0 rgeomod=1  shmod=0 nqsmod=0 coremod=0  cgeomod=2 capmod=0 tnom=300.15  eot=8.4e-10 eotbox=1.4e-7 tfin=6.5e-9 toxp=1.15e-9  nbody=1e22 phig=4.6136 epsrox=3.9 epsrsub=11.9  easub=4.05 ni0sub=1.1e16 bg0sub=1.12 nc0sub=2.86e25  nsd=3e26 ngate=0 nfin=1 d=4e-8  nseg=5 l=1.1e-8  xl=0 lint=-2.5e-10 ll=0 lln=1  llc=0 dlc=0 dlbin=0 hfin=1.8e-8  fech=1 deltaw=0 deltawcv=0 fechcv=1  hepi=8e-9  tsili=7e-9 rhoc=4e-13 cratio=0.5 deltaprsd=0  sdterm=0 ldg=2e-9 epsrsp=3.9 tgate=7.5e-9  tmask=0 asiliend=0 arsdend=0 prsdend=0  nsde=9e25 rgeoa=1 rgeob=0 rgeoc=0  rgeod=0 rgeoe=0 cgeoa=1 cgeob=0  cgeoc=0 cgeod=0 cgeoe=1  cit=1.3e-5  cdsc=0.0252 cdscd=0.007 dvt0=0.01 dvt1=0.69  phin=0.05 eta0=0.39 dsub=0.9 k1rsce=0  lpe0=5e-9 dvtshift=0 qmfactor=0 qmtceniv=0  qmtcencv=0 etaqm=0.54 qm0=0.001143 pqm=0.66  qm0acc=0.001 pqmacc=0.66 delvfbacc=0  u0=0.065  etamob=2 up=0 lpa=1 ua=0.3  aua=0 bua=1e-7 eu=1.8 ud=0  aud=0 bud=5e-8 ucs=0 rdswmin=0  rdsw=100 ardsw=0 brdsw=1e-7 prwg=0  wr=1 rswmin=0 rsw=0 arsw=0  brsw=1e-7 rdwmin=0 rdw=0 ardw=0  brdw=1e-7 rgfin=0.001 rgext=0 rshs=0  vsat=1.6e5  deltavsat=1 ksativ=0.8 avsat=0 avsat1=0  bvsat=1e-7 bvsat1=1e-7 mexp=3 amexp=0  bmexp=1 ptwg=0 aptwg=0 bptwg=1e-7  pclm=0.2 pclmcv=0.013 apclm=0 bpclm=1e-7  pclmg=0 pclmgcv=0 vasat=0.6 vasatcv=0.2  pdibl1=1.3 pdibl2=0.0002 drout=1.06 pvag=1  fpitch=2.2e-8  rth0=0.01 cth0=1e-5 wth0=0  aigbinv=0.0111  bigbinv=0.03 cigbinv=0.006 eigbinv=1.1 nigbinv=1.2  aigbacc=0.0149 bigbacc=0.000949 cigbacc=0.075 nigbacc=3  aigc=0.0136  bigc=0.00171 cigc=0.075 nigc=1  dlcigs=0 dlcigd=0 aigs=0.0136 aigd=0.0136  bigs=0.00171 bigd=0.00171 cigs=0.075 cigd=0.075  poxedge=1  agidl=5.729e-12 agisl=5.729e-12 bgidl=3e8 bgisl=3e8  egidl=0.1 egisl=0.1 alpha0=0  alpha1=0 alphaii=0 betaii0=0 betaii1=0  betaii2=0.1 esatii=1e7 lii=5e-10 sii0=0.5  sii1=0.1 sii2=0 siid=0 beta0=30  lintigen=0  ntgen=1 aigen=0 bigen=0  xrcrg1=12  xrcrg2=1  jss=1e-4 jsd=1e-4 jsws=0 jswgs=0  njs=1 njd=1 ijthsfwd=0.1 ijthdfwd=0.1  ijthsrev=0.1 ijthdrev=0.1 bvs=10 bvd=10  xjbvs=1 xjbvd=1 cjs=5e-4  cjd=5e-4 cjsws=5e-10 cjswgs=0 pbs=1  pbd=1 pbsws=1 mjs=0.5 mjd=0.5  mjsws2=0.33 mjswd2=0.33 mjsws=0.33 sjs=0  sjsws=0 sjswgs=0 mjs2=0.125 mjd2=0.125  cgsp=0 cgdp=0 cdsp=0 cfs=2.56e-11  cfd=2.65e-11 covs=2.5e-11 covd=2.5e-11 cgsl=0  ckappas=0.6 cgbo=0 cgbl=0  tbgasub=0.000702 tbgbsub=1108 kt1=0  kt1l=0 ute=0  utl=-0.0015 ua1=0.001032 ud1=0 ucste=-0.00478  at=-0.00156  ptwgt=0.004 tmexp=0 prt=0.001  iit=-0.5 tii=0 tgidl=-0.0003 igt=2.5  tcj=0 tcjsw=0 tcjswg=0 tpb=0  tpbsw=0 tpbswg=0 xtis=3 xtid=3  xtss=0.02 xtssws=0.02 xtsswgs=0.02 tnjts=0  tnjtssw=0 tnjtsswg=0  ef=1  lintnoi=0 em=4.1e7 noia=6.25e39 noib=3.125e24  noic=8.75e7 ntnoi=1
	* Unrecognized parameter "xtssws" -- ignored
Error on line 1217 : .model nfet nmos level=49  bulkmod=1  lmin=1e-8 lmax=3e-8  version=105.03 igcmod=1 igbmod=1  gidlmod=0 iimod=0 geomod=1  rdsmod=1 rgatemod=0 rgeomod=1  shmod=0 nqsmod=0 coremod=0  cgeomod=2 capmod=0 tnom=300.15  eot=8.4e-10 eotbox=1.4e-7 tfin=6.5e-9 toxp=1.15e-9  nbody=1e22 phig=4.6136 epsrox=3.9 epsrsub=11.9  easub=4.05 ni0sub=1.1e16 bg0sub=1.12 nc0sub=2.86e25  nsd=3e26 ngate=0 nfin=1 d=4e-8  nseg=5 l=1.1e-8  xl=0 lint=-2.5e-10 ll=0 lln=1  llc=0 dlc=0 dlbin=0 hfin=1.8e-8  fech=1 deltaw=0 deltawcv=0 fechcv=1  hepi=8e-9  tsili=7e-9 rhoc=4e-13 cratio=0.5 deltaprsd=0  sdterm=0 ldg=2e-9 epsrsp=3.9 tgate=7.5e-9  tmask=0 asiliend=0 arsdend=0 prsdend=0  nsde=9e25 rgeoa=1 rgeob=0 rgeoc=0  rgeod=0 rgeoe=0 cgeoa=1 cgeob=0  cgeoc=0 cgeod=0 cgeoe=1  cit=1.3e-5  cdsc=0.0252 cdscd=0.007 dvt0=0.01 dvt1=0.69  phin=0.05 eta0=0.39 dsub=0.9 k1rsce=0  lpe0=5e-9 dvtshift=0 qmfactor=0 qmtceniv=0  qmtcencv=0 etaqm=0.54 qm0=0.001143 pqm=0.66  qm0acc=0.001 pqmacc=0.66 delvfbacc=0  u0=0.065  etamob=2 up=0 lpa=1 ua=0.3  aua=0 bua=1e-7 eu=1.8 ud=0  aud=0 bud=5e-8 ucs=0 rdswmin=0  rdsw=100 ardsw=0 brdsw=1e-7 prwg=0  wr=1 rswmin=0 rsw=0 arsw=0  brsw=1e-7 rdwmin=0 rdw=0 ardw=0  brdw=1e-7 rgfin=0.001 rgext=0 rshs=0  vsat=1.6e5  deltavsat=1 ksativ=0.8 avsat=0 avsat1=0  bvsat=1e-7 bvsat1=1e-7 mexp=3 amexp=0  bmexp=1 ptwg=0 aptwg=0 bptwg=1e-7  pclm=0.2 pclmcv=0.013 apclm=0 bpclm=1e-7  pclmg=0 pclmgcv=0 vasat=0.6 vasatcv=0.2  pdibl1=1.3 pdibl2=0.0002 drout=1.06 pvag=1  fpitch=2.2e-8  rth0=0.01 cth0=1e-5 wth0=0  aigbinv=0.0111  bigbinv=0.03 cigbinv=0.006 eigbinv=1.1 nigbinv=1.2  aigbacc=0.0149 bigbacc=0.000949 cigbacc=0.075 nigbacc=3  aigc=0.0136  bigc=0.00171 cigc=0.075 nigc=1  dlcigs=0 dlcigd=0 aigs=0.0136 aigd=0.0136  bigs=0.00171 bigd=0.00171 cigs=0.075 cigd=0.075  poxedge=1  agidl=5.729e-12 agisl=5.729e-12 bgidl=3e8 bgisl=3e8  egidl=0.1 egisl=0.1 alpha0=0  alpha1=0 alphaii=0 betaii0=0 betaii1=0  betaii2=0.1 esatii=1e7 lii=5e-10 sii0=0.5  sii1=0.1 sii2=0 siid=0 beta0=30  lintigen=0  ntgen=1 aigen=0 bigen=0  xrcrg1=12  xrcrg2=1  jss=1e-4 jsd=1e-4 jsws=0 jswgs=0  njs=1 njd=1 ijthsfwd=0.1 ijthdfwd=0.1  ijthsrev=0.1 ijthdrev=0.1 bvs=10 bvd=10  xjbvs=1 xjbvd=1 cjs=5e-4  cjd=5e-4 cjsws=5e-10 cjswgs=0 pbs=1  pbd=1 pbsws=1 mjs=0.5 mjd=0.5  mjsws2=0.33 mjswd2=0.33 mjsws=0.33 sjs=0  sjsws=0 sjswgs=0 mjs2=0.125 mjd2=0.125  cgsp=0 cgdp=0 cdsp=0 cfs=2.56e-11  cfd=2.65e-11 covs=2.5e-11 covd=2.5e-11 cgsl=0  ckappas=0.6 cgbo=0 cgbl=0  tbgasub=0.000702 tbgbsub=1108 kt1=0  kt1l=0 ute=0  utl=-0.0015 ua1=0.001032 ud1=0 ucste=-0.00478  at=-0.00156  ptwgt=0.004 tmexp=0 prt=0.001  iit=-0.5 tii=0 tgidl=-0.0003 igt=2.5  tcj=0 tcjsw=0 tcjswg=0 tpb=0  tpbsw=0 tpbswg=0 xtis=3 xtid=3  xtss=0.02 xtssws=0.02 xtsswgs=0.02 tnjts=0  tnjtssw=0 tnjtsswg=0  ef=1  lintnoi=0 em=4.1e7 noia=6.25e39 noib=3.125e24  noic=8.75e7 ntnoi=1
	* Unrecognized parameter "xtsswgs" -- ignored
Error on line 1217 : .model nfet nmos level=49  bulkmod=1  lmin=1e-8 lmax=3e-8  version=105.03 igcmod=1 igbmod=1  gidlmod=0 iimod=0 geomod=1  rdsmod=1 rgatemod=0 rgeomod=1  shmod=0 nqsmod=0 coremod=0  cgeomod=2 capmod=0 tnom=300.15  eot=8.4e-10 eotbox=1.4e-7 tfin=6.5e-9 toxp=1.15e-9  nbody=1e22 phig=4.6136 epsrox=3.9 epsrsub=11.9  easub=4.05 ni0sub=1.1e16 bg0sub=1.12 nc0sub=2.86e25  nsd=3e26 ngate=0 nfin=1 d=4e-8  nseg=5 l=1.1e-8  xl=0 lint=-2.5e-10 ll=0 lln=1  llc=0 dlc=0 dlbin=0 hfin=1.8e-8  fech=1 deltaw=0 deltawcv=0 fechcv=1  hepi=8e-9  tsili=7e-9 rhoc=4e-13 cratio=0.5 deltaprsd=0  sdterm=0 ldg=2e-9 epsrsp=3.9 tgate=7.5e-9  tmask=0 asiliend=0 arsdend=0 prsdend=0  nsde=9e25 rgeoa=1 rgeob=0 rgeoc=0  rgeod=0 rgeoe=0 cgeoa=1 cgeob=0  cgeoc=0 cgeod=0 cgeoe=1  cit=1.3e-5  cdsc=0.0252 cdscd=0.007 dvt0=0.01 dvt1=0.69  phin=0.05 eta0=0.39 dsub=0.9 k1rsce=0  lpe0=5e-9 dvtshift=0 qmfactor=0 qmtceniv=0  qmtcencv=0 etaqm=0.54 qm0=0.001143 pqm=0.66  qm0acc=0.001 pqmacc=0.66 delvfbacc=0  u0=0.065  etamob=2 up=0 lpa=1 ua=0.3  aua=0 bua=1e-7 eu=1.8 ud=0  aud=0 bud=5e-8 ucs=0 rdswmin=0  rdsw=100 ardsw=0 brdsw=1e-7 prwg=0  wr=1 rswmin=0 rsw=0 arsw=0  brsw=1e-7 rdwmin=0 rdw=0 ardw=0  brdw=1e-7 rgfin=0.001 rgext=0 rshs=0  vsat=1.6e5  deltavsat=1 ksativ=0.8 avsat=0 avsat1=0  bvsat=1e-7 bvsat1=1e-7 mexp=3 amexp=0  bmexp=1 ptwg=0 aptwg=0 bptwg=1e-7  pclm=0.2 pclmcv=0.013 apclm=0 bpclm=1e-7  pclmg=0 pclmgcv=0 vasat=0.6 vasatcv=0.2  pdibl1=1.3 pdibl2=0.0002 drout=1.06 pvag=1  fpitch=2.2e-8  rth0=0.01 cth0=1e-5 wth0=0  aigbinv=0.0111  bigbinv=0.03 cigbinv=0.006 eigbinv=1.1 nigbinv=1.2  aigbacc=0.0149 bigbacc=0.000949 cigbacc=0.075 nigbacc=3  aigc=0.0136  bigc=0.00171 cigc=0.075 nigc=1  dlcigs=0 dlcigd=0 aigs=0.0136 aigd=0.0136  bigs=0.00171 bigd=0.00171 cigs=0.075 cigd=0.075  poxedge=1  agidl=5.729e-12 agisl=5.729e-12 bgidl=3e8 bgisl=3e8  egidl=0.1 egisl=0.1 alpha0=0  alpha1=0 alphaii=0 betaii0=0 betaii1=0  betaii2=0.1 esatii=1e7 lii=5e-10 sii0=0.5  sii1=0.1 sii2=0 siid=0 beta0=30  lintigen=0  ntgen=1 aigen=0 bigen=0  xrcrg1=12  xrcrg2=1  jss=1e-4 jsd=1e-4 jsws=0 jswgs=0  njs=1 njd=1 ijthsfwd=0.1 ijthdfwd=0.1  ijthsrev=0.1 ijthdrev=0.1 bvs=10 bvd=10  xjbvs=1 xjbvd=1 cjs=5e-4  cjd=5e-4 cjsws=5e-10 cjswgs=0 pbs=1  pbd=1 pbsws=1 mjs=0.5 mjd=0.5  mjsws2=0.33 mjswd2=0.33 mjsws=0.33 sjs=0  sjsws=0 sjswgs=0 mjs2=0.125 mjd2=0.125  cgsp=0 cgdp=0 cdsp=0 cfs=2.56e-11  cfd=2.65e-11 covs=2.5e-11 covd=2.5e-11 cgsl=0  ckappas=0.6 cgbo=0 cgbl=0  tbgasub=0.000702 tbgbsub=1108 kt1=0  kt1l=0 ute=0  utl=-0.0015 ua1=0.001032 ud1=0 ucste=-0.00478  at=-0.00156  ptwgt=0.004 tmexp=0 prt=0.001  iit=-0.5 tii=0 tgidl=-0.0003 igt=2.5  tcj=0 tcjsw=0 tcjswg=0 tpb=0  tpbsw=0 tpbswg=0 xtis=3 xtid=3  xtss=0.02 xtssws=0.02 xtsswgs=0.02 tnjts=0  tnjtssw=0 tnjtsswg=0  ef=1  lintnoi=0 em=4.1e7 noia=6.25e39 noib=3.125e24  noic=8.75e7 ntnoi=1
	* Unrecognized parameter "tnjts" -- ignored
Error on line 1217 : .model nfet nmos level=49  bulkmod=1  lmin=1e-8 lmax=3e-8  version=105.03 igcmod=1 igbmod=1  gidlmod=0 iimod=0 geomod=1  rdsmod=1 rgatemod=0 rgeomod=1  shmod=0 nqsmod=0 coremod=0  cgeomod=2 capmod=0 tnom=300.15  eot=8.4e-10 eotbox=1.4e-7 tfin=6.5e-9 toxp=1.15e-9  nbody=1e22 phig=4.6136 epsrox=3.9 epsrsub=11.9  easub=4.05 ni0sub=1.1e16 bg0sub=1.12 nc0sub=2.86e25  nsd=3e26 ngate=0 nfin=1 d=4e-8  nseg=5 l=1.1e-8  xl=0 lint=-2.5e-10 ll=0 lln=1  llc=0 dlc=0 dlbin=0 hfin=1.8e-8  fech=1 deltaw=0 deltawcv=0 fechcv=1  hepi=8e-9  tsili=7e-9 rhoc=4e-13 cratio=0.5 deltaprsd=0  sdterm=0 ldg=2e-9 epsrsp=3.9 tgate=7.5e-9  tmask=0 asiliend=0 arsdend=0 prsdend=0  nsde=9e25 rgeoa=1 rgeob=0 rgeoc=0  rgeod=0 rgeoe=0 cgeoa=1 cgeob=0  cgeoc=0 cgeod=0 cgeoe=1  cit=1.3e-5  cdsc=0.0252 cdscd=0.007 dvt0=0.01 dvt1=0.69  phin=0.05 eta0=0.39 dsub=0.9 k1rsce=0  lpe0=5e-9 dvtshift=0 qmfactor=0 qmtceniv=0  qmtcencv=0 etaqm=0.54 qm0=0.001143 pqm=0.66  qm0acc=0.001 pqmacc=0.66 delvfbacc=0  u0=0.065  etamob=2 up=0 lpa=1 ua=0.3  aua=0 bua=1e-7 eu=1.8 ud=0  aud=0 bud=5e-8 ucs=0 rdswmin=0  rdsw=100 ardsw=0 brdsw=1e-7 prwg=0  wr=1 rswmin=0 rsw=0 arsw=0  brsw=1e-7 rdwmin=0 rdw=0 ardw=0  brdw=1e-7 rgfin=0.001 rgext=0 rshs=0  vsat=1.6e5  deltavsat=1 ksativ=0.8 avsat=0 avsat1=0  bvsat=1e-7 bvsat1=1e-7 mexp=3 amexp=0  bmexp=1 ptwg=0 aptwg=0 bptwg=1e-7  pclm=0.2 pclmcv=0.013 apclm=0 bpclm=1e-7  pclmg=0 pclmgcv=0 vasat=0.6 vasatcv=0.2  pdibl1=1.3 pdibl2=0.0002 drout=1.06 pvag=1  fpitch=2.2e-8  rth0=0.01 cth0=1e-5 wth0=0  aigbinv=0.0111  bigbinv=0.03 cigbinv=0.006 eigbinv=1.1 nigbinv=1.2  aigbacc=0.0149 bigbacc=0.000949 cigbacc=0.075 nigbacc=3  aigc=0.0136  bigc=0.00171 cigc=0.075 nigc=1  dlcigs=0 dlcigd=0 aigs=0.0136 aigd=0.0136  bigs=0.00171 bigd=0.00171 cigs=0.075 cigd=0.075  poxedge=1  agidl=5.729e-12 agisl=5.729e-12 bgidl=3e8 bgisl=3e8  egidl=0.1 egisl=0.1 alpha0=0  alpha1=0 alphaii=0 betaii0=0 betaii1=0  betaii2=0.1 esatii=1e7 lii=5e-10 sii0=0.5  sii1=0.1 sii2=0 siid=0 beta0=30  lintigen=0  ntgen=1 aigen=0 bigen=0  xrcrg1=12  xrcrg2=1  jss=1e-4 jsd=1e-4 jsws=0 jswgs=0  njs=1 njd=1 ijthsfwd=0.1 ijthdfwd=0.1  ijthsrev=0.1 ijthdrev=0.1 bvs=10 bvd=10  xjbvs=1 xjbvd=1 cjs=5e-4  cjd=5e-4 cjsws=5e-10 cjswgs=0 pbs=1  pbd=1 pbsws=1 mjs=0.5 mjd=0.5  mjsws2=0.33 mjswd2=0.33 mjsws=0.33 sjs=0  sjsws=0 sjswgs=0 mjs2=0.125 mjd2=0.125  cgsp=0 cgdp=0 cdsp=0 cfs=2.56e-11  cfd=2.65e-11 covs=2.5e-11 covd=2.5e-11 cgsl=0  ckappas=0.6 cgbo=0 cgbl=0  tbgasub=0.000702 tbgbsub=1108 kt1=0  kt1l=0 ute=0  utl=-0.0015 ua1=0.001032 ud1=0 ucste=-0.00478  at=-0.00156  ptwgt=0.004 tmexp=0 prt=0.001  iit=-0.5 tii=0 tgidl=-0.0003 igt=2.5  tcj=0 tcjsw=0 tcjswg=0 tpb=0  tpbsw=0 tpbswg=0 xtis=3 xtid=3  xtss=0.02 xtssws=0.02 xtsswgs=0.02 tnjts=0  tnjtssw=0 tnjtsswg=0  ef=1  lintnoi=0 em=4.1e7 noia=6.25e39 noib=3.125e24  noic=8.75e7 ntnoi=1
	* Unrecognized parameter "tnjtssw" -- ignored
Error on line 1217 : .model nfet nmos level=49  bulkmod=1  lmin=1e-8 lmax=3e-8  version=105.03 igcmod=1 igbmod=1  gidlmod=0 iimod=0 geomod=1  rdsmod=1 rgatemod=0 rgeomod=1  shmod=0 nqsmod=0 coremod=0  cgeomod=2 capmod=0 tnom=300.15  eot=8.4e-10 eotbox=1.4e-7 tfin=6.5e-9 toxp=1.15e-9  nbody=1e22 phig=4.6136 epsrox=3.9 epsrsub=11.9  easub=4.05 ni0sub=1.1e16 bg0sub=1.12 nc0sub=2.86e25  nsd=3e26 ngate=0 nfin=1 d=4e-8  nseg=5 l=1.1e-8  xl=0 lint=-2.5e-10 ll=0 lln=1  llc=0 dlc=0 dlbin=0 hfin=1.8e-8  fech=1 deltaw=0 deltawcv=0 fechcv=1  hepi=8e-9  tsili=7e-9 rhoc=4e-13 cratio=0.5 deltaprsd=0  sdterm=0 ldg=2e-9 epsrsp=3.9 tgate=7.5e-9  tmask=0 asiliend=0 arsdend=0 prsdend=0  nsde=9e25 rgeoa=1 rgeob=0 rgeoc=0  rgeod=0 rgeoe=0 cgeoa=1 cgeob=0  cgeoc=0 cgeod=0 cgeoe=1  cit=1.3e-5  cdsc=0.0252 cdscd=0.007 dvt0=0.01 dvt1=0.69  phin=0.05 eta0=0.39 dsub=0.9 k1rsce=0  lpe0=5e-9 dvtshift=0 qmfactor=0 qmtceniv=0  qmtcencv=0 etaqm=0.54 qm0=0.001143 pqm=0.66  qm0acc=0.001 pqmacc=0.66 delvfbacc=0  u0=0.065  etamob=2 up=0 lpa=1 ua=0.3  aua=0 bua=1e-7 eu=1.8 ud=0  aud=0 bud=5e-8 ucs=0 rdswmin=0  rdsw=100 ardsw=0 brdsw=1e-7 prwg=0  wr=1 rswmin=0 rsw=0 arsw=0  brsw=1e-7 rdwmin=0 rdw=0 ardw=0  brdw=1e-7 rgfin=0.001 rgext=0 rshs=0  vsat=1.6e5  deltavsat=1 ksativ=0.8 avsat=0 avsat1=0  bvsat=1e-7 bvsat1=1e-7 mexp=3 amexp=0  bmexp=1 ptwg=0 aptwg=0 bptwg=1e-7  pclm=0.2 pclmcv=0.013 apclm=0 bpclm=1e-7  pclmg=0 pclmgcv=0 vasat=0.6 vasatcv=0.2  pdibl1=1.3 pdibl2=0.0002 drout=1.06 pvag=1  fpitch=2.2e-8  rth0=0.01 cth0=1e-5 wth0=0  aigbinv=0.0111  bigbinv=0.03 cigbinv=0.006 eigbinv=1.1 nigbinv=1.2  aigbacc=0.0149 bigbacc=0.000949 cigbacc=0.075 nigbacc=3  aigc=0.0136  bigc=0.00171 cigc=0.075 nigc=1  dlcigs=0 dlcigd=0 aigs=0.0136 aigd=0.0136  bigs=0.00171 bigd=0.00171 cigs=0.075 cigd=0.075  poxedge=1  agidl=5.729e-12 agisl=5.729e-12 bgidl=3e8 bgisl=3e8  egidl=0.1 egisl=0.1 alpha0=0  alpha1=0 alphaii=0 betaii0=0 betaii1=0  betaii2=0.1 esatii=1e7 lii=5e-10 sii0=0.5  sii1=0.1 sii2=0 siid=0 beta0=30  lintigen=0  ntgen=1 aigen=0 bigen=0  xrcrg1=12  xrcrg2=1  jss=1e-4 jsd=1e-4 jsws=0 jswgs=0  njs=1 njd=1 ijthsfwd=0.1 ijthdfwd=0.1  ijthsrev=0.1 ijthdrev=0.1 bvs=10 bvd=10  xjbvs=1 xjbvd=1 cjs=5e-4  cjd=5e-4 cjsws=5e-10 cjswgs=0 pbs=1  pbd=1 pbsws=1 mjs=0.5 mjd=0.5  mjsws2=0.33 mjswd2=0.33 mjsws=0.33 sjs=0  sjsws=0 sjswgs=0 mjs2=0.125 mjd2=0.125  cgsp=0 cgdp=0 cdsp=0 cfs=2.56e-11  cfd=2.65e-11 covs=2.5e-11 covd=2.5e-11 cgsl=0  ckappas=0.6 cgbo=0 cgbl=0  tbgasub=0.000702 tbgbsub=1108 kt1=0  kt1l=0 ute=0  utl=-0.0015 ua1=0.001032 ud1=0 ucste=-0.00478  at=-0.00156  ptwgt=0.004 tmexp=0 prt=0.001  iit=-0.5 tii=0 tgidl=-0.0003 igt=2.5  tcj=0 tcjsw=0 tcjswg=0 tpb=0  tpbsw=0 tpbswg=0 xtis=3 xtid=3  xtss=0.02 xtssws=0.02 xtsswgs=0.02 tnjts=0  tnjtssw=0 tnjtsswg=0  ef=1  lintnoi=0 em=4.1e7 noia=6.25e39 noib=3.125e24  noic=8.75e7 ntnoi=1
	* Unrecognized parameter "tnjtsswg" -- ignored
Error on line 1217 : .model nfet nmos level=49  bulkmod=1  lmin=1e-8 lmax=3e-8  version=105.03 igcmod=1 igbmod=1  gidlmod=0 iimod=0 geomod=1  rdsmod=1 rgatemod=0 rgeomod=1  shmod=0 nqsmod=0 coremod=0  cgeomod=2 capmod=0 tnom=300.15  eot=8.4e-10 eotbox=1.4e-7 tfin=6.5e-9 toxp=1.15e-9  nbody=1e22 phig=4.6136 epsrox=3.9 epsrsub=11.9  easub=4.05 ni0sub=1.1e16 bg0sub=1.12 nc0sub=2.86e25  nsd=3e26 ngate=0 nfin=1 d=4e-8  nseg=5 l=1.1e-8  xl=0 lint=-2.5e-10 ll=0 lln=1  llc=0 dlc=0 dlbin=0 hfin=1.8e-8  fech=1 deltaw=0 deltawcv=0 fechcv=1  hepi=8e-9  tsili=7e-9 rhoc=4e-13 cratio=0.5 deltaprsd=0  sdterm=0 ldg=2e-9 epsrsp=3.9 tgate=7.5e-9  tmask=0 asiliend=0 arsdend=0 prsdend=0  nsde=9e25 rgeoa=1 rgeob=0 rgeoc=0  rgeod=0 rgeoe=0 cgeoa=1 cgeob=0  cgeoc=0 cgeod=0 cgeoe=1  cit=1.3e-5  cdsc=0.0252 cdscd=0.007 dvt0=0.01 dvt1=0.69  phin=0.05 eta0=0.39 dsub=0.9 k1rsce=0  lpe0=5e-9 dvtshift=0 qmfactor=0 qmtceniv=0  qmtcencv=0 etaqm=0.54 qm0=0.001143 pqm=0.66  qm0acc=0.001 pqmacc=0.66 delvfbacc=0  u0=0.065  etamob=2 up=0 lpa=1 ua=0.3  aua=0 bua=1e-7 eu=1.8 ud=0  aud=0 bud=5e-8 ucs=0 rdswmin=0  rdsw=100 ardsw=0 brdsw=1e-7 prwg=0  wr=1 rswmin=0 rsw=0 arsw=0  brsw=1e-7 rdwmin=0 rdw=0 ardw=0  brdw=1e-7 rgfin=0.001 rgext=0 rshs=0  vsat=1.6e5  deltavsat=1 ksativ=0.8 avsat=0 avsat1=0  bvsat=1e-7 bvsat1=1e-7 mexp=3 amexp=0  bmexp=1 ptwg=0 aptwg=0 bptwg=1e-7  pclm=0.2 pclmcv=0.013 apclm=0 bpclm=1e-7  pclmg=0 pclmgcv=0 vasat=0.6 vasatcv=0.2  pdibl1=1.3 pdibl2=0.0002 drout=1.06 pvag=1  fpitch=2.2e-8  rth0=0.01 cth0=1e-5 wth0=0  aigbinv=0.0111  bigbinv=0.03 cigbinv=0.006 eigbinv=1.1 nigbinv=1.2  aigbacc=0.0149 bigbacc=0.000949 cigbacc=0.075 nigbacc=3  aigc=0.0136  bigc=0.00171 cigc=0.075 nigc=1  dlcigs=0 dlcigd=0 aigs=0.0136 aigd=0.0136  bigs=0.00171 bigd=0.00171 cigs=0.075 cigd=0.075  poxedge=1  agidl=5.729e-12 agisl=5.729e-12 bgidl=3e8 bgisl=3e8  egidl=0.1 egisl=0.1 alpha0=0  alpha1=0 alphaii=0 betaii0=0 betaii1=0  betaii2=0.1 esatii=1e7 lii=5e-10 sii0=0.5  sii1=0.1 sii2=0 siid=0 beta0=30  lintigen=0  ntgen=1 aigen=0 bigen=0  xrcrg1=12  xrcrg2=1  jss=1e-4 jsd=1e-4 jsws=0 jswgs=0  njs=1 njd=1 ijthsfwd=0.1 ijthdfwd=0.1  ijthsrev=0.1 ijthdrev=0.1 bvs=10 bvd=10  xjbvs=1 xjbvd=1 cjs=5e-4  cjd=5e-4 cjsws=5e-10 cjswgs=0 pbs=1  pbd=1 pbsws=1 mjs=0.5 mjd=0.5  mjsws2=0.33 mjswd2=0.33 mjsws=0.33 sjs=0  sjsws=0 sjswgs=0 mjs2=0.125 mjd2=0.125  cgsp=0 cgdp=0 cdsp=0 cfs=2.56e-11  cfd=2.65e-11 covs=2.5e-11 covd=2.5e-11 cgsl=0  ckappas=0.6 cgbo=0 cgbl=0  tbgasub=0.000702 tbgbsub=1108 kt1=0  kt1l=0 ute=0  utl=-0.0015 ua1=0.001032 ud1=0 ucste=-0.00478  at=-0.00156  ptwgt=0.004 tmexp=0 prt=0.001  iit=-0.5 tii=0 tgidl=-0.0003 igt=2.5  tcj=0 tcjsw=0 tcjswg=0 tpb=0  tpbsw=0 tpbswg=0 xtis=3 xtid=3  xtss=0.02 xtssws=0.02 xtsswgs=0.02 tnjts=0  tnjtssw=0 tnjtsswg=0  ef=1  lintnoi=0 em=4.1e7 noia=6.25e39 noib=3.125e24  noic=8.75e7 ntnoi=1
	* Unrecognized parameter "ntnoi" -- ignored
solver = Normal
Maximum thread count: 8
tnom = 27
temp = 27
method = modified trap
Warning: LTspice supports BSIM3 version 3.3.0. Your model specified an unrecognized version: 105.03
Warning: Pd = 0 is less than W.
Warning: Ps = 0 is less than W.
vdd: Missing value, assumed 0V @ DC
vg: Missing value, assumed 0V @ DC
.OP point found by inspection.
.step vg=0
.step vg=0.01
.step vg=0.02
.step vg=0.03
.step vg=0.04
.step vg=0.05
.step vg=0.06
.step vg=0.07
.step vg=0.08
.step vg=0.09
.step vg=0.1
.step vg=0.11
.step vg=0.12
.step vg=0.13
.step vg=0.14
.step vg=0.15
.step vg=0.16
.step vg=0.17
.step vg=0.18
.step vg=0.19
.step vg=0.2
.step vg=0.21
.step vg=0.22
.step vg=0.23
.step vg=0.24
.step vg=0.25
.step vg=0.26
.step vg=0.27
.step vg=0.28
.step vg=0.29
.step vg=0.3
.step vg=0.31
.step vg=0.32
.step vg=0.33
.step vg=0.34
.step vg=0.35
.step vg=0.36
.step vg=0.37
.step vg=0.38
.step vg=0.39
.step vg=0.4
.step vg=0.41
.step vg=0.42
.step vg=0.43
.step vg=0.44
.step vg=0.45
.step vg=0.46
.step vg=0.47
.step vg=0.48
.step vg=0.49
.step vg=0.5
.step vg=0.51
.step vg=0.52
.step vg=0.53
.step vg=0.54
.step vg=0.55
.step vg=0.56
.step vg=0.57
.step vg=0.58
.step vg=0.59
.step vg=0.6
.step vg=0.61
.step vg=0.62
.step vg=0.63
.step vg=0.64
.step vg=0.65
.step vg=0.66
.step vg=0.67
.step vg=0.68
.step vg=0.69
.step vg=0.7
.step vg=0.71
.step vg=0.72
.step vg=0.73
.step vg=0.74
.step vg=0.75
.step vg=0.76
.step vg=0.77
.step vg=0.78
.step vg=0.79
.step vg=0.8
.step vg=0.81
.step vg=0.82
.step vg=0.83
.step vg=0.84
.step vg=0.85
.step vg=0.86
.step vg=0.87
.step vg=0.88
.step vg=0.89
.step vg=0.9
.step vg=0.91
.step vg=0.92
.step vg=0.93
.step vg=0.94
.step vg=0.95
.step vg=0.96
.step vg=0.97
.step vg=0.98
.step vg=0.99
.step vg=1
Total elapsed time: 0.469 seconds.

