LTspice 24.0.12 for Windows
Circuit: *
Start Time: Tue Dec 24 16:59:31 2024
Fatal Error: No analysis request found.
