LTspice 24.0.9 for Windows
Circuit: * C:\Users\nicol\Documents\GitHub\Spice-LK-Model\old\Oscilador_test\transistor_7n.asc
Start Time: Tue Jan 21 15:55:30 2025
solver = Normal
Maximum thread count: 8
tnom = 27
temp = 27
method = modified trap
v1: Missing value, assumed 0V @ DC
Total elapsed time: 0.044 seconds.

