LTspice 24.0.12 for Windows
Circuit: * Spice implementation of Landau
Start Time: Tue Dec 24 16:54:19 2024
Fatal Error: No analysis request found.
