LTspice 24.0.12 for Windows
Circuit: * C:\Users\MBX\Desktop\Investigacion\Spice-LK-Model\Oscilador_test\Fe_test.asc
Start Time: Tue Dec 24 16:57:35 2024
solver = Normal
Maximum thread count: 20
tnom = 27
temp = 27
method = modified trap
WARNING: Less than two connections to node q.  This node is used by b1.
WARNING: Less than two connections to node q1.  This node is used by b2.
WARNING: Less than two connections to node nc_05.  This node is used by b:u1:cap.
Direct Newton iteration for .op point succeeded.
Heightened Def Con from 0.000550084 to 0.000550087
Total elapsed time: 26.573 seconds.

