LTspice 24.0.12 for Windows
Circuit: * C:\Users\MBX\Desktop\Investigacion\Spice-LK-Model\Oscilador_test\Oscilador_coupled.asc
Start Time: Tue Dec 24 17:28:59 2024
solver = Normal
Maximum thread count: 20
tnom = 27
temp = 27
method = modified trap
Direct Newton iteration for .op point succeeded.
Ignoring empty pin current: Ix(u2:g)
Ignoring empty pin current: Ix(u4:g)
Ignoring empty pin current: Ix(u6:g)
Ignoring empty pin current: Ix(u8:g)
Ignoring empty pin current: Ix(u2:g)
Ignoring empty pin current: Ix(u4:g)
Ignoring empty pin current: Ix(u6:g)
Ignoring empty pin current: Ix(u8:g)
Total elapsed time: 92.846 seconds.

