LTspice 24.0.12 for Windows
Circuit: * Spice implementation of Landau
Start Time: Thu Oct  3 10:16:03 2024
Fatal Error: No analysis request found.
