LTspice 24.0.12 for Windows
Circuit: * C:\Users\MBX\Desktop\Investigacion\Spice-LK-Model\Fe_model\Draft1.asc
Start Time: Tue Dec  3 15:34:24 2024
solver = Normal
Maximum thread count: 20
tnom = 27
temp = 27
method = modified trap
WARNING: Less than two connections to node n001.  This node is used by v1.
.OP point found by inspection.
Total elapsed time: 0.198 seconds.

