LTspice 24.0.12 for Windows
Circuit: * Spice implementation of Landau
Start Time: Tue Nov 12 12:27:35 2024
Fatal Error: No analysis request found.
