LTspice 24.0.12 for Windows
Circuit: * Spice implementation of Landau
Start Time: Wed Dec  4 13:55:16 2024
Fatal Error: No analysis request found.
