LTspice 24.0.12 for Windows
Circuit: * C:\Users\MBX\Desktop\Investigacion\Spice-LK-Model\Fe_model\Fe_test.asc
Start Time: Fri Oct  4 09:58:32 2024
solver = Normal
Maximum thread count: 20
tnom = 27
temp = 27
method = modified trap
WARNING: Less than two connections to node q.  This node is used by b1.
.OP point found by inspection.
Total elapsed time: 4.264 seconds.

