LTspice 24.0.12 for Windows
Circuit: * Spice implementation of Landau
Start Time: Fri Oct  4 09:56:51 2024
Fatal Error: No analysis request found.
