LTspice 24.0.12 for Windows
Circuit: * C:\Users\MBX\Desktop\Investigacion\Spice-LK-Model\Fe_model\Fe_test.asc
Start Time: Mon Nov 18 17:11:42 2024
solver = Normal
Maximum thread count: 20



WARNING: Less than two connections to node q.  This node is used by b1.
.OP point found by inspection.
.step r=0.0001



.step r=0.000125892541179417



.step r=0.000158489319246111



.step r=0.000199526231496888



.step r=0.000251188643150958



.step r=0.000316227766016838



.step r=0.000398107170553497



.step r=0.000501187233627272



.step r=0.000630957344480193



.step r=0.000794328234724281



.step r=0.000999999999999999



.step r=0.00125892541179417



.step r=0.00158489319246111



.step r=0.00199526231496888



.step r=0.00251188643150958



.step r=0.00316227766016838



.step r=0.00398107170553497



.step r=0.00501187233627272



.step r=0.00630957344480193



.step r=0.00794328234724281



.step r=0.01



.step r=0.0125892541179417



.step r=0.0158489319246111



.step r=0.0199526231496888



.step r=0.0251188643150958



.step r=0.0316227766016838



.step r=0.0398107170553497



.step r=0.0501187233627272



.step r=0.0630957344480193



.step r=0.0794328234724281



.step r=0.1



.step r=0.125892541179417



.step r=0.158489319246111



.step r=0.199526231496888



.step r=0.251188643150958



.step r=0.316227766016838



.step r=0.398107170553497



.step r=0.501187233627272



.step r=0.630957344480193



.step r=0.794328234724281
tnom = 27
temp = 27
method = modified trap
.step r=1
Total elapsed time: 485.380 seconds.

