LTspice 24.0.12 for Windows
Circuit: * C:\Users\MBX\Desktop\Investigacion\Spice-LK-Model\Fe_model\Fe_test.asc
Start Time: Wed Dec  4 13:55:21 2024
solver = Normal
Maximum thread count: 20
tnom = 27
temp = 27
method = modified trap
WARNING: Less than two connections to node q.  This node is used by b1.
Direct Newton iteration for .op point succeeded.
Heightened Def Con from 1.01515e-14 to 4.00001e-09
Total elapsed time: 10.546 seconds.

