LTspice 24.0.12 for Windows
Circuit: * Spice implementation of Landau
Start Time: Tue Nov  5 16:59:29 2024
Fatal Error: No analysis request found.
