LTspice 24.0.12 for Windows
Circuit: * Spice implementation of Landau
Start Time: Wed Nov 13 10:33:39 2024
Fatal Error: No analysis request found.
