LTspice 24.0.12 for Windows
Circuit: * C:\Users\MBX\Desktop\Investigacion\Spice-LK-Model\Fe_model\Fe_test.asc
Start Time: Wed Nov 13 10:33:43 2024
solver = Normal
Maximum thread count: 20



WARNING: Less than two connections to node q.  This node is used by b1.
.OP point found by inspection.
.step taut=1e-09



.step taut=1e-08



.step taut=1e-07



.step taut=1e-06



.step taut=1e-05
tnom = 27
temp = 27
method = modified trap
.step taut=5e-05
Total elapsed time: 87.460 seconds.

