LTspice 24.0.12 for Windows
Circuit: * Multi-domian SPICE model
Start Time: Thu Dec  5 14:47:48 2024
Fatal Error: No analysis request found.
