LTspice 24.0.12 for Windows
Circuit: * Multi-domian SPICE model
Start Time: Fri Nov 29 12:06:05 2024
solver = Normal
Maximum thread count: 20
tnom = 27
temp = 27
method = modified trap
WARNING: Less than two connections to node q.  This node is used by b1.
.OP point found by inspection.
Total elapsed time: 6.529 seconds.

