LTspice 24.0.12 for Windows
Circuit: * Multi-domian dynamic SPICE Simulation
Start Time: Wed Dec 18 18:51:14 2024
solver = Normal
Maximum thread count: 20
tnom = 27
temp = 27
method = modified trap
WARNING: Less than two connections to node q.  This node is used by b1.
Direct Newton iteration failed to find .op point.  (Use ".option noopiter" to skip.)
Starting Gmin stepping
Gmin = 10
Gmin = 1.07374
Gmin = 0.115292
Gmin = 0.0123794
Gmin = 0.00132923
Gmin = 0.000142725
Gmin = 1.5325e-05
Gmin = 1.6455e-06
Gmin = 1.76685e-07
Gmin = 1.89714e-08
Gmin = 2.03704e-09
Gmin = 2.18725e-10
Gmin = 2.34854e-11
Gmin = 2.52173e-12
Gmin = 2.70769e-13
Gmin = 0
Gmin stepping succeeded in finding the operating point.

Ignoring empty pin current: Ix(u_0:in)
Ignoring empty pin current: Ix(u_0:out)
Ignoring empty pin current: Ix(u_1:in)
Ignoring empty pin current: Ix(u_1:out)
Ignoring empty pin current: Ix(u_2:in)
Ignoring empty pin current: Ix(u_2:out)
Ignoring empty pin current: Ix(u_3:in)
Ignoring empty pin current: Ix(u_3:out)
Ignoring empty pin current: Ix(u_4:in)
Ignoring empty pin current: Ix(u_4:out)
Ignoring empty pin current: Ix(u_5:in)
Ignoring empty pin current: Ix(u_5:out)
Ignoring empty pin current: Ix(u_6:in)
Ignoring empty pin current: Ix(u_6:out)
Ignoring empty pin current: Ix(u_7:in)
Ignoring empty pin current: Ix(u_7:out)
Ignoring empty pin current: Ix(u_8:in)
Ignoring empty pin current: Ix(u_8:out)
Ignoring empty pin current: Ix(u_9:in)
Ignoring empty pin current: Ix(u_9:out)
Ignoring empty pin current: Ix(u_10:in)
Ignoring empty pin current: Ix(u_10:out)
Ignoring empty pin current: Ix(u_11:in)
Ignoring empty pin current: Ix(u_11:out)
Ignoring empty pin current: Ix(u_12:in)
Ignoring empty pin current: Ix(u_12:out)
Ignoring empty pin current: Ix(u_13:in)
Ignoring empty pin current: Ix(u_13:out)
Ignoring empty pin current: Ix(u_14:in)
Ignoring empty pin current: Ix(u_14:out)
Ignoring empty pin current: Ix(u_15:in)
Ignoring empty pin current: Ix(u_15:out)
Ignoring empty pin current: Ix(u_16:in)
Ignoring empty pin current: Ix(u_16:out)
Ignoring empty pin current: Ix(u_17:in)
Ignoring empty pin current: Ix(u_17:out)
Ignoring empty pin current: Ix(u_18:in)
Ignoring empty pin current: Ix(u_18:out)
Ignoring empty pin current: Ix(u_19:in)
Ignoring empty pin current: Ix(u_19:out)
Ignoring empty pin current: Ix(u_20:in)
Ignoring empty pin current: Ix(u_20:out)
Ignoring empty pin current: Ix(u_21:in)
Ignoring empty pin current: Ix(u_21:out)
Ignoring empty pin current: Ix(u_22:in)
Ignoring empty pin current: Ix(u_22:out)
Ignoring empty pin current: Ix(u_23:in)
Ignoring empty pin current: Ix(u_23:out)
Ignoring empty pin current: Ix(u_24:in)
Ignoring empty pin current: Ix(u_24:out)
Ignoring empty pin current: Ix(u_25:in)
Ignoring empty pin current: Ix(u_25:out)
Ignoring empty pin current: Ix(u_26:in)
Ignoring empty pin current: Ix(u_26:out)
Ignoring empty pin current: Ix(u_27:in)
Ignoring empty pin current: Ix(u_27:out)
Ignoring empty pin current: Ix(u_28:in)
Ignoring empty pin current: Ix(u_28:out)
Ignoring empty pin current: Ix(u_29:in)
Ignoring empty pin current: Ix(u_29:out)
Ignoring empty pin current: Ix(u_30:in)
Ignoring empty pin current: Ix(u_30:out)
Ignoring empty pin current: Ix(u_31:in)
Ignoring empty pin current: Ix(u_31:out)
Ignoring empty pin current: Ix(u_32:in)
Ignoring empty pin current: Ix(u_32:out)
Ignoring empty pin current: Ix(u_33:in)
Ignoring empty pin current: Ix(u_33:out)
Ignoring empty pin current: Ix(u_34:in)
Ignoring empty pin current: Ix(u_34:out)
Ignoring empty pin current: Ix(u_35:in)
Ignoring empty pin current: Ix(u_35:out)
Ignoring empty pin current: Ix(u_36:in)
Ignoring empty pin current: Ix(u_36:out)
Ignoring empty pin current: Ix(u_37:in)
Ignoring empty pin current: Ix(u_37:out)
Ignoring empty pin current: Ix(u_38:in)
Ignoring empty pin current: Ix(u_38:out)
Ignoring empty pin current: Ix(u_39:in)
Ignoring empty pin current: Ix(u_39:out)
Ignoring empty pin current: Ix(u_40:in)
Ignoring empty pin current: Ix(u_40:out)
Ignoring empty pin current: Ix(u_41:in)
Ignoring empty pin current: Ix(u_41:out)
Ignoring empty pin current: Ix(u_42:in)
Ignoring empty pin current: Ix(u_42:out)
Ignoring empty pin current: Ix(u_43:in)
Ignoring empty pin current: Ix(u_43:out)
Ignoring empty pin current: Ix(u_44:in)
Ignoring empty pin current: Ix(u_44:out)
Ignoring empty pin current: Ix(u_45:in)
Ignoring empty pin current: Ix(u_45:out)
Ignoring empty pin current: Ix(u_46:in)
Ignoring empty pin current: Ix(u_46:out)
Ignoring empty pin current: Ix(u_47:in)
Ignoring empty pin current: Ix(u_47:out)
Ignoring empty pin current: Ix(u_48:in)
Ignoring empty pin current: Ix(u_48:out)
Ignoring empty pin current: Ix(u_49:in)
Ignoring empty pin current: Ix(u_49:out)
Ignoring empty pin current: Ix(u_50:in)
Ignoring empty pin current: Ix(u_50:out)
Ignoring empty pin current: Ix(u_51:in)
Ignoring empty pin current: Ix(u_51:out)
Ignoring empty pin current: Ix(u_52:in)
Ignoring empty pin current: Ix(u_52:out)
Ignoring empty pin current: Ix(u_53:in)
Ignoring empty pin current: Ix(u_53:out)
Ignoring empty pin current: Ix(u_54:in)
Ignoring empty pin current: Ix(u_54:out)
Ignoring empty pin current: Ix(u_55:in)
Ignoring empty pin current: Ix(u_55:out)
Ignoring empty pin current: Ix(u_56:in)
Ignoring empty pin current: Ix(u_56:out)
Ignoring empty pin current: Ix(u_57:in)
Ignoring empty pin current: Ix(u_57:out)
Ignoring empty pin current: Ix(u_58:in)
Ignoring empty pin current: Ix(u_58:out)
Ignoring empty pin current: Ix(u_59:in)
Ignoring empty pin current: Ix(u_59:out)
Ignoring empty pin current: Ix(u_60:in)
Ignoring empty pin current: Ix(u_60:out)
Ignoring empty pin current: Ix(u_61:in)
Ignoring empty pin current: Ix(u_61:out)
Ignoring empty pin current: Ix(u_62:in)
Ignoring empty pin current: Ix(u_62:out)
Ignoring empty pin current: Ix(u_63:in)
Ignoring empty pin current: Ix(u_63:out)
Ignoring empty pin current: Ix(u_64:in)
Ignoring empty pin current: Ix(u_64:out)
Ignoring empty pin current: Ix(u_65:in)
Ignoring empty pin current: Ix(u_65:out)
Ignoring empty pin current: Ix(u_66:in)
Ignoring empty pin current: Ix(u_66:out)
Ignoring empty pin current: Ix(u_67:in)
Ignoring empty pin current: Ix(u_67:out)
Ignoring empty pin current: Ix(u_68:in)
Ignoring empty pin current: Ix(u_68:out)
Ignoring empty pin current: Ix(u_69:in)
Ignoring empty pin current: Ix(u_69:out)
Ignoring empty pin current: Ix(u_70:in)
Ignoring empty pin current: Ix(u_70:out)
Ignoring empty pin current: Ix(u_71:in)
Ignoring empty pin current: Ix(u_71:out)
Ignoring empty pin current: Ix(u_72:in)
Ignoring empty pin current: Ix(u_72:out)
Ignoring empty pin current: Ix(u_73:in)
Ignoring empty pin current: Ix(u_73:out)
Ignoring empty pin current: Ix(u_74:in)
Ignoring empty pin current: Ix(u_74:out)
Ignoring empty pin current: Ix(u_75:in)
Ignoring empty pin current: Ix(u_75:out)
Ignoring empty pin current: Ix(u_76:in)
Ignoring empty pin current: Ix(u_76:out)
Ignoring empty pin current: Ix(u_77:in)
Ignoring empty pin current: Ix(u_77:out)
Ignoring empty pin current: Ix(u_78:in)
Ignoring empty pin current: Ix(u_78:out)
Ignoring empty pin current: Ix(u_79:in)
Ignoring empty pin current: Ix(u_79:out)
Ignoring empty pin current: Ix(u_80:in)
Ignoring empty pin current: Ix(u_80:out)
Ignoring empty pin current: Ix(u_81:in)
Ignoring empty pin current: Ix(u_81:out)
Ignoring empty pin current: Ix(u_82:in)
Ignoring empty pin current: Ix(u_82:out)
Ignoring empty pin current: Ix(u_83:in)
Ignoring empty pin current: Ix(u_83:out)
Ignoring empty pin current: Ix(u_84:in)
Ignoring empty pin current: Ix(u_84:out)
Ignoring empty pin current: Ix(u_85:in)
Ignoring empty pin current: Ix(u_85:out)
Ignoring empty pin current: Ix(u_86:in)
Ignoring empty pin current: Ix(u_86:out)
Ignoring empty pin current: Ix(u_87:in)
Ignoring empty pin current: Ix(u_87:out)
Ignoring empty pin current: Ix(u_88:in)
Ignoring empty pin current: Ix(u_88:out)
Ignoring empty pin current: Ix(u_89:in)
Ignoring empty pin current: Ix(u_89:out)
Ignoring empty pin current: Ix(u_90:in)
Ignoring empty pin current: Ix(u_90:out)
Ignoring empty pin current: Ix(u_91:in)
Ignoring empty pin current: Ix(u_91:out)
Ignoring empty pin current: Ix(u_92:in)
Ignoring empty pin current: Ix(u_92:out)
Ignoring empty pin current: Ix(u_93:in)
Ignoring empty pin current: Ix(u_93:out)
Ignoring empty pin current: Ix(u_94:in)
Ignoring empty pin current: Ix(u_94:out)
Ignoring empty pin current: Ix(u_95:in)
Ignoring empty pin current: Ix(u_95:out)
Ignoring empty pin current: Ix(u_96:in)
Ignoring empty pin current: Ix(u_96:out)
Ignoring empty pin current: Ix(u_97:in)
Ignoring empty pin current: Ix(u_97:out)
Ignoring empty pin current: Ix(u_98:in)
Ignoring empty pin current: Ix(u_98:out)
Ignoring empty pin current: Ix(u_99:in)
Ignoring empty pin current: Ix(u_99:out)
Ignoring empty pin current: Ix(u_100:in)
Ignoring empty pin current: Ix(u_100:out)
Ignoring empty pin current: Ix(u_101:in)
Ignoring empty pin current: Ix(u_101:out)
Ignoring empty pin current: Ix(u_102:in)
Ignoring empty pin current: Ix(u_102:out)
Ignoring empty pin current: Ix(u_103:in)
Ignoring empty pin current: Ix(u_103:out)
Ignoring empty pin current: Ix(u_104:in)
Ignoring empty pin current: Ix(u_104:out)
Ignoring empty pin current: Ix(u_105:in)
Ignoring empty pin current: Ix(u_105:out)
Ignoring empty pin current: Ix(u_106:in)
Ignoring empty pin current: Ix(u_106:out)
Ignoring empty pin current: Ix(u_107:in)
Ignoring empty pin current: Ix(u_107:out)
Ignoring empty pin current: Ix(u_108:in)
Ignoring empty pin current: Ix(u_108:out)
Ignoring empty pin current: Ix(u_109:in)
Ignoring empty pin current: Ix(u_109:out)
Ignoring empty pin current: Ix(u_110:in)
Ignoring empty pin current: Ix(u_110:out)
Ignoring empty pin current: Ix(u_111:in)
Ignoring empty pin current: Ix(u_111:out)
Ignoring empty pin current: Ix(u_112:in)
Ignoring empty pin current: Ix(u_112:out)
Ignoring empty pin current: Ix(u_113:in)
Ignoring empty pin current: Ix(u_113:out)
Ignoring empty pin current: Ix(u_114:in)
Ignoring empty pin current: Ix(u_114:out)
Ignoring empty pin current: Ix(u_115:in)
Ignoring empty pin current: Ix(u_115:out)
Ignoring empty pin current: Ix(u_116:in)
Ignoring empty pin current: Ix(u_116:out)
Ignoring empty pin current: Ix(u_117:in)
Ignoring empty pin current: Ix(u_117:out)
Ignoring empty pin current: Ix(u_118:in)
Ignoring empty pin current: Ix(u_118:out)
Ignoring empty pin current: Ix(u_119:in)
Ignoring empty pin current: Ix(u_119:out)
Ignoring empty pin current: Ix(u_120:in)
Ignoring empty pin current: Ix(u_120:out)
Ignoring empty pin current: Ix(u_121:in)
Ignoring empty pin current: Ix(u_121:out)
Ignoring empty pin current: Ix(u_122:in)
Ignoring empty pin current: Ix(u_122:out)
Ignoring empty pin current: Ix(u_123:in)
Ignoring empty pin current: Ix(u_123:out)
Ignoring empty pin current: Ix(u_124:in)
Ignoring empty pin current: Ix(u_124:out)
Ignoring empty pin current: Ix(u_125:in)
Ignoring empty pin current: Ix(u_125:out)
Ignoring empty pin current: Ix(u_126:in)
Ignoring empty pin current: Ix(u_126:out)
Ignoring empty pin current: Ix(u_127:in)
Ignoring empty pin current: Ix(u_127:out)
Ignoring empty pin current: Ix(u_128:in)
Ignoring empty pin current: Ix(u_128:out)
Ignoring empty pin current: Ix(u_129:in)
Ignoring empty pin current: Ix(u_129:out)
Ignoring empty pin current: Ix(u_130:in)
Ignoring empty pin current: Ix(u_130:out)
Ignoring empty pin current: Ix(u_131:in)
Ignoring empty pin current: Ix(u_131:out)
Ignoring empty pin current: Ix(u_132:in)
Ignoring empty pin current: Ix(u_132:out)
Ignoring empty pin current: Ix(u_133:in)
Ignoring empty pin current: Ix(u_133:out)
Ignoring empty pin current: Ix(u_134:in)
Ignoring empty pin current: Ix(u_134:out)
Ignoring empty pin current: Ix(u_135:in)
Ignoring empty pin current: Ix(u_135:out)
Ignoring empty pin current: Ix(u_136:in)
Ignoring empty pin current: Ix(u_136:out)
Ignoring empty pin current: Ix(u_137:in)
Ignoring empty pin current: Ix(u_137:out)
Ignoring empty pin current: Ix(u_138:in)
Ignoring empty pin current: Ix(u_138:out)
Ignoring empty pin current: Ix(u_139:in)
Ignoring empty pin current: Ix(u_139:out)
Ignoring empty pin current: Ix(u_140:in)
Ignoring empty pin current: Ix(u_140:out)
Ignoring empty pin current: Ix(u_141:in)
Ignoring empty pin current: Ix(u_141:out)
Ignoring empty pin current: Ix(u_142:in)
Ignoring empty pin current: Ix(u_142:out)
Ignoring empty pin current: Ix(u_143:in)
Ignoring empty pin current: Ix(u_143:out)
Ignoring empty pin current: Ix(u_144:in)
Ignoring empty pin current: Ix(u_144:out)
Ignoring empty pin current: Ix(u_145:in)
Ignoring empty pin current: Ix(u_145:out)
Ignoring empty pin current: Ix(u_146:in)
Ignoring empty pin current: Ix(u_146:out)
Ignoring empty pin current: Ix(u_147:in)
Ignoring empty pin current: Ix(u_147:out)
Ignoring empty pin current: Ix(u_148:in)
Ignoring empty pin current: Ix(u_148:out)
Ignoring empty pin current: Ix(u_149:in)
Ignoring empty pin current: Ix(u_149:out)
Ignoring empty pin current: Ix(u_150:in)
Ignoring empty pin current: Ix(u_150:out)
Ignoring empty pin current: Ix(u_151:in)
Ignoring empty pin current: Ix(u_151:out)
Ignoring empty pin current: Ix(u_152:in)
Ignoring empty pin current: Ix(u_152:out)
Ignoring empty pin current: Ix(u_153:in)
Ignoring empty pin current: Ix(u_153:out)
Ignoring empty pin current: Ix(u_154:in)
Ignoring empty pin current: Ix(u_154:out)
Ignoring empty pin current: Ix(u_155:in)
Ignoring empty pin current: Ix(u_155:out)
Ignoring empty pin current: Ix(u_156:in)
Ignoring empty pin current: Ix(u_156:out)
Ignoring empty pin current: Ix(u_157:in)
Ignoring empty pin current: Ix(u_157:out)
Ignoring empty pin current: Ix(u_158:in)
Ignoring empty pin current: Ix(u_158:out)
Ignoring empty pin current: Ix(u_159:in)
Ignoring empty pin current: Ix(u_159:out)
Ignoring empty pin current: Ix(u_160:in)
Ignoring empty pin current: Ix(u_160:out)
Ignoring empty pin current: Ix(u_161:in)
Ignoring empty pin current: Ix(u_161:out)
Ignoring empty pin current: Ix(u_162:in)
Ignoring empty pin current: Ix(u_162:out)
Ignoring empty pin current: Ix(u_163:in)
Ignoring empty pin current: Ix(u_163:out)
Ignoring empty pin current: Ix(u_164:in)
Ignoring empty pin current: Ix(u_164:out)
Ignoring empty pin current: Ix(u_165:in)
Ignoring empty pin current: Ix(u_165:out)
Ignoring empty pin current: Ix(u_166:in)
Ignoring empty pin current: Ix(u_166:out)
Ignoring empty pin current: Ix(u_167:in)
Ignoring empty pin current: Ix(u_167:out)
Ignoring empty pin current: Ix(u_168:in)
Ignoring empty pin current: Ix(u_168:out)
Ignoring empty pin current: Ix(u_169:in)
Ignoring empty pin current: Ix(u_169:out)
Ignoring empty pin current: Ix(u_170:in)
Ignoring empty pin current: Ix(u_170:out)
Ignoring empty pin current: Ix(u_171:in)
Ignoring empty pin current: Ix(u_171:out)
Ignoring empty pin current: Ix(u_172:in)
Ignoring empty pin current: Ix(u_172:out)
Ignoring empty pin current: Ix(u_173:in)
Ignoring empty pin current: Ix(u_173:out)
Ignoring empty pin current: Ix(u_174:in)
Ignoring empty pin current: Ix(u_174:out)
Ignoring empty pin current: Ix(u_175:in)
Ignoring empty pin current: Ix(u_175:out)
Ignoring empty pin current: Ix(u_176:in)
Ignoring empty pin current: Ix(u_176:out)
Ignoring empty pin current: Ix(u_177:in)
Ignoring empty pin current: Ix(u_177:out)
Ignoring empty pin current: Ix(u_178:in)
Ignoring empty pin current: Ix(u_178:out)
Ignoring empty pin current: Ix(u_179:in)
Ignoring empty pin current: Ix(u_179:out)
Ignoring empty pin current: Ix(u_180:in)
Ignoring empty pin current: Ix(u_180:out)
Ignoring empty pin current: Ix(u_181:in)
Ignoring empty pin current: Ix(u_181:out)
Ignoring empty pin current: Ix(u_182:in)
Ignoring empty pin current: Ix(u_182:out)
Ignoring empty pin current: Ix(u_183:in)
Ignoring empty pin current: Ix(u_183:out)
Ignoring empty pin current: Ix(u_184:in)
Ignoring empty pin current: Ix(u_184:out)
Ignoring empty pin current: Ix(u_185:in)
Ignoring empty pin current: Ix(u_185:out)
Ignoring empty pin current: Ix(u_186:in)
Ignoring empty pin current: Ix(u_186:out)
Ignoring empty pin current: Ix(u_187:in)
Ignoring empty pin current: Ix(u_187:out)
Ignoring empty pin current: Ix(u_188:in)
Ignoring empty pin current: Ix(u_188:out)
Ignoring empty pin current: Ix(u_189:in)
Ignoring empty pin current: Ix(u_189:out)
Ignoring empty pin current: Ix(u_190:in)
Ignoring empty pin current: Ix(u_190:out)
Ignoring empty pin current: Ix(u_191:in)
Ignoring empty pin current: Ix(u_191:out)
Ignoring empty pin current: Ix(u_192:in)
Ignoring empty pin current: Ix(u_192:out)
Ignoring empty pin current: Ix(u_193:in)
Ignoring empty pin current: Ix(u_193:out)
Ignoring empty pin current: Ix(u_194:in)
Ignoring empty pin current: Ix(u_194:out)
Ignoring empty pin current: Ix(u_195:in)
Ignoring empty pin current: Ix(u_195:out)
Ignoring empty pin current: Ix(u_196:in)
Ignoring empty pin current: Ix(u_196:out)
Ignoring empty pin current: Ix(u_197:in)
Ignoring empty pin current: Ix(u_197:out)
Ignoring empty pin current: Ix(u_198:in)
Ignoring empty pin current: Ix(u_198:out)
Ignoring empty pin current: Ix(u_199:in)
Ignoring empty pin current: Ix(u_199:out)
Ignoring empty pin current: Ix(u_200:in)
Ignoring empty pin current: Ix(u_200:out)
Ignoring empty pin current: Ix(u_201:in)
Ignoring empty pin current: Ix(u_201:out)
Ignoring empty pin current: Ix(u_202:in)
Ignoring empty pin current: Ix(u_202:out)
Ignoring empty pin current: Ix(u_203:in)
Ignoring empty pin current: Ix(u_203:out)
Ignoring empty pin current: Ix(u_204:in)
Ignoring empty pin current: Ix(u_204:out)
Ignoring empty pin current: Ix(u_205:in)
Ignoring empty pin current: Ix(u_205:out)
Ignoring empty pin current: Ix(u_206:in)
Ignoring empty pin current: Ix(u_206:out)
Ignoring empty pin current: Ix(u_207:in)
Ignoring empty pin current: Ix(u_207:out)
Ignoring empty pin current: Ix(u_208:in)
Ignoring empty pin current: Ix(u_208:out)
Ignoring empty pin current: Ix(u_209:in)
Ignoring empty pin current: Ix(u_209:out)
Ignoring empty pin current: Ix(u_210:in)
Ignoring empty pin current: Ix(u_210:out)
Ignoring empty pin current: Ix(u_211:in)
Ignoring empty pin current: Ix(u_211:out)
Ignoring empty pin current: Ix(u_212:in)
Ignoring empty pin current: Ix(u_212:out)
Ignoring empty pin current: Ix(u_213:in)
Ignoring empty pin current: Ix(u_213:out)
Ignoring empty pin current: Ix(u_214:in)
Ignoring empty pin current: Ix(u_214:out)
Ignoring empty pin current: Ix(u_215:in)
Ignoring empty pin current: Ix(u_215:out)
Ignoring empty pin current: Ix(u_216:in)
Ignoring empty pin current: Ix(u_216:out)
Ignoring empty pin current: Ix(u_217:in)
Ignoring empty pin current: Ix(u_217:out)
Ignoring empty pin current: Ix(u_218:in)
Ignoring empty pin current: Ix(u_218:out)
Ignoring empty pin current: Ix(u_219:in)
Ignoring empty pin current: Ix(u_219:out)
Ignoring empty pin current: Ix(u_220:in)
Ignoring empty pin current: Ix(u_220:out)
Ignoring empty pin current: Ix(u_221:in)
Ignoring empty pin current: Ix(u_221:out)
Ignoring empty pin current: Ix(u_222:in)
Ignoring empty pin current: Ix(u_222:out)
Ignoring empty pin current: Ix(u_223:in)
Ignoring empty pin current: Ix(u_223:out)
Ignoring empty pin current: Ix(u_224:in)
Ignoring empty pin current: Ix(u_224:out)
Ignoring empty pin current: Ix(u_225:in)
Ignoring empty pin current: Ix(u_225:out)
Ignoring empty pin current: Ix(u_226:in)
Ignoring empty pin current: Ix(u_226:out)
Ignoring empty pin current: Ix(u_227:in)
Ignoring empty pin current: Ix(u_227:out)
Ignoring empty pin current: Ix(u_228:in)
Ignoring empty pin current: Ix(u_228:out)
Ignoring empty pin current: Ix(u_229:in)
Ignoring empty pin current: Ix(u_229:out)
Ignoring empty pin current: Ix(u_230:in)
Ignoring empty pin current: Ix(u_230:out)
Ignoring empty pin current: Ix(u_231:in)
Ignoring empty pin current: Ix(u_231:out)
Ignoring empty pin current: Ix(u_232:in)
Ignoring empty pin current: Ix(u_232:out)
Ignoring empty pin current: Ix(u_233:in)
Ignoring empty pin current: Ix(u_233:out)
Ignoring empty pin current: Ix(u_234:in)
Ignoring empty pin current: Ix(u_234:out)
Ignoring empty pin current: Ix(u_235:in)
Ignoring empty pin current: Ix(u_235:out)
Ignoring empty pin current: Ix(u_236:in)
Ignoring empty pin current: Ix(u_236:out)
Ignoring empty pin current: Ix(u_237:in)
Ignoring empty pin current: Ix(u_237:out)
Ignoring empty pin current: Ix(u_238:in)
Ignoring empty pin current: Ix(u_238:out)
Ignoring empty pin current: Ix(u_239:in)
Ignoring empty pin current: Ix(u_239:out)
Ignoring empty pin current: Ix(u_240:in)
Ignoring empty pin current: Ix(u_240:out)
Ignoring empty pin current: Ix(u_241:in)
Ignoring empty pin current: Ix(u_241:out)
Ignoring empty pin current: Ix(u_242:in)
Ignoring empty pin current: Ix(u_242:out)
Ignoring empty pin current: Ix(u_243:in)
Ignoring empty pin current: Ix(u_243:out)
Ignoring empty pin current: Ix(u_244:in)
Ignoring empty pin current: Ix(u_244:out)
Ignoring empty pin current: Ix(u_245:in)
Ignoring empty pin current: Ix(u_245:out)
Ignoring empty pin current: Ix(u_246:in)
Ignoring empty pin current: Ix(u_246:out)
Ignoring empty pin current: Ix(u_247:in)
Ignoring empty pin current: Ix(u_247:out)
Ignoring empty pin current: Ix(u_248:in)
Ignoring empty pin current: Ix(u_248:out)
Ignoring empty pin current: Ix(u_249:in)
Ignoring empty pin current: Ix(u_249:out)
Ignoring empty pin current: Ix(u_250:in)
Ignoring empty pin current: Ix(u_250:out)
Ignoring empty pin current: Ix(u_251:in)
Ignoring empty pin current: Ix(u_251:out)
Ignoring empty pin current: Ix(u_252:in)
Ignoring empty pin current: Ix(u_252:out)
Ignoring empty pin current: Ix(u_253:in)
Ignoring empty pin current: Ix(u_253:out)
Ignoring empty pin current: Ix(u_254:in)
Ignoring empty pin current: Ix(u_254:out)
Ignoring empty pin current: Ix(u_255:in)
Ignoring empty pin current: Ix(u_255:out)
Ignoring empty pin current: Ix(u_256:in)
Ignoring empty pin current: Ix(u_256:out)
Ignoring empty pin current: Ix(u_257:in)
Ignoring empty pin current: Ix(u_257:out)
Ignoring empty pin current: Ix(u_258:in)
Ignoring empty pin current: Ix(u_258:out)
Ignoring empty pin current: Ix(u_259:in)
Ignoring empty pin current: Ix(u_259:out)
Ignoring empty pin current: Ix(u_260:in)
Ignoring empty pin current: Ix(u_260:out)
Ignoring empty pin current: Ix(u_261:in)
Ignoring empty pin current: Ix(u_261:out)
Ignoring empty pin current: Ix(u_262:in)
Ignoring empty pin current: Ix(u_262:out)
Ignoring empty pin current: Ix(u_263:in)
Ignoring empty pin current: Ix(u_263:out)
Ignoring empty pin current: Ix(u_264:in)
Ignoring empty pin current: Ix(u_264:out)
Ignoring empty pin current: Ix(u_265:in)
Ignoring empty pin current: Ix(u_265:out)
Ignoring empty pin current: Ix(u_266:in)
Ignoring empty pin current: Ix(u_266:out)
Ignoring empty pin current: Ix(u_267:in)
Ignoring empty pin current: Ix(u_267:out)
Ignoring empty pin current: Ix(u_268:in)
Ignoring empty pin current: Ix(u_268:out)
Ignoring empty pin current: Ix(u_269:in)
Ignoring empty pin current: Ix(u_269:out)
Ignoring empty pin current: Ix(u_270:in)
Ignoring empty pin current: Ix(u_270:out)
Ignoring empty pin current: Ix(u_271:in)
Ignoring empty pin current: Ix(u_271:out)
Ignoring empty pin current: Ix(u_272:in)
Ignoring empty pin current: Ix(u_272:out)
Ignoring empty pin current: Ix(u_273:in)
Ignoring empty pin current: Ix(u_273:out)
Ignoring empty pin current: Ix(u_274:in)
Ignoring empty pin current: Ix(u_274:out)
Ignoring empty pin current: Ix(u_275:in)
Ignoring empty pin current: Ix(u_275:out)
Ignoring empty pin current: Ix(u_276:in)
Ignoring empty pin current: Ix(u_276:out)
Ignoring empty pin current: Ix(u_277:in)
Ignoring empty pin current: Ix(u_277:out)
Ignoring empty pin current: Ix(u_278:in)
Ignoring empty pin current: Ix(u_278:out)
Ignoring empty pin current: Ix(u_279:in)
Ignoring empty pin current: Ix(u_279:out)
Ignoring empty pin current: Ix(u_280:in)
Ignoring empty pin current: Ix(u_280:out)
Ignoring empty pin current: Ix(u_281:in)
Ignoring empty pin current: Ix(u_281:out)
Ignoring empty pin current: Ix(u_282:in)
Ignoring empty pin current: Ix(u_282:out)
Ignoring empty pin current: Ix(u_283:in)
Ignoring empty pin current: Ix(u_283:out)
Ignoring empty pin current: Ix(u_284:in)
Ignoring empty pin current: Ix(u_284:out)
Ignoring empty pin current: Ix(u_285:in)
Ignoring empty pin current: Ix(u_285:out)
Ignoring empty pin current: Ix(u_286:in)
Ignoring empty pin current: Ix(u_286:out)
Ignoring empty pin current: Ix(u_287:in)
Ignoring empty pin current: Ix(u_287:out)
Ignoring empty pin current: Ix(u_288:in)
Ignoring empty pin current: Ix(u_288:out)
Ignoring empty pin current: Ix(u_289:in)
Ignoring empty pin current: Ix(u_289:out)
Ignoring empty pin current: Ix(u_290:in)
Ignoring empty pin current: Ix(u_290:out)
Ignoring empty pin current: Ix(u_291:in)
Ignoring empty pin current: Ix(u_291:out)
Ignoring empty pin current: Ix(u_292:in)
Ignoring empty pin current: Ix(u_292:out)
Ignoring empty pin current: Ix(u_293:in)
Ignoring empty pin current: Ix(u_293:out)
Ignoring empty pin current: Ix(u_294:in)
Ignoring empty pin current: Ix(u_294:out)
Ignoring empty pin current: Ix(u_295:in)
Ignoring empty pin current: Ix(u_295:out)
Ignoring empty pin current: Ix(u_296:in)
Ignoring empty pin current: Ix(u_296:out)
Ignoring empty pin current: Ix(u_297:in)
Ignoring empty pin current: Ix(u_297:out)
Ignoring empty pin current: Ix(u_298:in)
Ignoring empty pin current: Ix(u_298:out)
Ignoring empty pin current: Ix(u_299:in)
Ignoring empty pin current: Ix(u_299:out)
Ignoring empty pin current: Ix(u_300:in)
Ignoring empty pin current: Ix(u_300:out)
Ignoring empty pin current: Ix(u_301:in)
Ignoring empty pin current: Ix(u_301:out)
Ignoring empty pin current: Ix(u_302:in)
Ignoring empty pin current: Ix(u_302:out)
Ignoring empty pin current: Ix(u_303:in)
Ignoring empty pin current: Ix(u_303:out)
Ignoring empty pin current: Ix(u_304:in)
Ignoring empty pin current: Ix(u_304:out)
Ignoring empty pin current: Ix(u_305:in)
Ignoring empty pin current: Ix(u_305:out)
Ignoring empty pin current: Ix(u_306:in)
Ignoring empty pin current: Ix(u_306:out)
Ignoring empty pin current: Ix(u_307:in)
Ignoring empty pin current: Ix(u_307:out)
Ignoring empty pin current: Ix(u_308:in)
Ignoring empty pin current: Ix(u_308:out)
Ignoring empty pin current: Ix(u_309:in)
Ignoring empty pin current: Ix(u_309:out)
Ignoring empty pin current: Ix(u_310:in)
Ignoring empty pin current: Ix(u_310:out)
Ignoring empty pin current: Ix(u_311:in)
Ignoring empty pin current: Ix(u_311:out)
Ignoring empty pin current: Ix(u_312:in)
Ignoring empty pin current: Ix(u_312:out)
Ignoring empty pin current: Ix(u_313:in)
Ignoring empty pin current: Ix(u_313:out)
Ignoring empty pin current: Ix(u_314:in)
Ignoring empty pin current: Ix(u_314:out)
Ignoring empty pin current: Ix(u_315:in)
Ignoring empty pin current: Ix(u_315:out)
Ignoring empty pin current: Ix(u_316:in)
Ignoring empty pin current: Ix(u_316:out)
Ignoring empty pin current: Ix(u_317:in)
Ignoring empty pin current: Ix(u_317:out)
Ignoring empty pin current: Ix(u_318:in)
Ignoring empty pin current: Ix(u_318:out)
Ignoring empty pin current: Ix(u_319:in)
Ignoring empty pin current: Ix(u_319:out)
Ignoring empty pin current: Ix(u_320:in)
Ignoring empty pin current: Ix(u_320:out)
Ignoring empty pin current: Ix(u_321:in)
Ignoring empty pin current: Ix(u_321:out)
Ignoring empty pin current: Ix(u_322:in)
Ignoring empty pin current: Ix(u_322:out)
Ignoring empty pin current: Ix(u_323:in)
Ignoring empty pin current: Ix(u_323:out)
Ignoring empty pin current: Ix(u_324:in)
Ignoring empty pin current: Ix(u_324:out)
Ignoring empty pin current: Ix(u_325:in)
Ignoring empty pin current: Ix(u_325:out)
Ignoring empty pin current: Ix(u_326:in)
Ignoring empty pin current: Ix(u_326:out)
Ignoring empty pin current: Ix(u_327:in)
Ignoring empty pin current: Ix(u_327:out)
Ignoring empty pin current: Ix(u_328:in)
Ignoring empty pin current: Ix(u_328:out)
Ignoring empty pin current: Ix(u_329:in)
Ignoring empty pin current: Ix(u_329:out)
Ignoring empty pin current: Ix(u_330:in)
Ignoring empty pin current: Ix(u_330:out)
Ignoring empty pin current: Ix(u_331:in)
Ignoring empty pin current: Ix(u_331:out)
Ignoring empty pin current: Ix(u_332:in)
Ignoring empty pin current: Ix(u_332:out)
Ignoring empty pin current: Ix(u_333:in)
Ignoring empty pin current: Ix(u_333:out)
Ignoring empty pin current: Ix(u_334:in)
Ignoring empty pin current: Ix(u_334:out)
Ignoring empty pin current: Ix(u_335:in)
Ignoring empty pin current: Ix(u_335:out)
Ignoring empty pin current: Ix(u_336:in)
Ignoring empty pin current: Ix(u_336:out)
Ignoring empty pin current: Ix(u_337:in)
Ignoring empty pin current: Ix(u_337:out)
Ignoring empty pin current: Ix(u_338:in)
Ignoring empty pin current: Ix(u_338:out)
Ignoring empty pin current: Ix(u_339:in)
Ignoring empty pin current: Ix(u_339:out)
Ignoring empty pin current: Ix(u_340:in)
Ignoring empty pin current: Ix(u_340:out)
Ignoring empty pin current: Ix(u_341:in)
Ignoring empty pin current: Ix(u_341:out)
Ignoring empty pin current: Ix(u_342:in)
Ignoring empty pin current: Ix(u_342:out)
Ignoring empty pin current: Ix(u_343:in)
Ignoring empty pin current: Ix(u_343:out)
Ignoring empty pin current: Ix(u_344:in)
Ignoring empty pin current: Ix(u_344:out)
Ignoring empty pin current: Ix(u_345:in)
Ignoring empty pin current: Ix(u_345:out)
Ignoring empty pin current: Ix(u_346:in)
Ignoring empty pin current: Ix(u_346:out)
Ignoring empty pin current: Ix(u_347:in)
Ignoring empty pin current: Ix(u_347:out)
Ignoring empty pin current: Ix(u_348:in)
Ignoring empty pin current: Ix(u_348:out)
Ignoring empty pin current: Ix(u_349:in)
Ignoring empty pin current: Ix(u_349:out)
Ignoring empty pin current: Ix(u_350:in)
Ignoring empty pin current: Ix(u_350:out)
Ignoring empty pin current: Ix(u_351:in)
Ignoring empty pin current: Ix(u_351:out)
Ignoring empty pin current: Ix(u_352:in)
Ignoring empty pin current: Ix(u_352:out)
Ignoring empty pin current: Ix(u_353:in)
Ignoring empty pin current: Ix(u_353:out)
Ignoring empty pin current: Ix(u_354:in)
Ignoring empty pin current: Ix(u_354:out)
Ignoring empty pin current: Ix(u_355:in)
Ignoring empty pin current: Ix(u_355:out)
Ignoring empty pin current: Ix(u_356:in)
Ignoring empty pin current: Ix(u_356:out)
Ignoring empty pin current: Ix(u_357:in)
Ignoring empty pin current: Ix(u_357:out)
Ignoring empty pin current: Ix(u_358:in)
Ignoring empty pin current: Ix(u_358:out)
Ignoring empty pin current: Ix(u_359:in)
Ignoring empty pin current: Ix(u_359:out)
Ignoring empty pin current: Ix(u_360:in)
Ignoring empty pin current: Ix(u_360:out)
Ignoring empty pin current: Ix(u_361:in)
Ignoring empty pin current: Ix(u_361:out)
Ignoring empty pin current: Ix(u_362:in)
Ignoring empty pin current: Ix(u_362:out)
Ignoring empty pin current: Ix(u_363:in)
Ignoring empty pin current: Ix(u_363:out)
Ignoring empty pin current: Ix(u_364:in)
Ignoring empty pin current: Ix(u_364:out)
Ignoring empty pin current: Ix(u_365:in)
Ignoring empty pin current: Ix(u_365:out)
Ignoring empty pin current: Ix(u_366:in)
Ignoring empty pin current: Ix(u_366:out)
Ignoring empty pin current: Ix(u_367:in)
Ignoring empty pin current: Ix(u_367:out)
Ignoring empty pin current: Ix(u_368:in)
Ignoring empty pin current: Ix(u_368:out)
Ignoring empty pin current: Ix(u_369:in)
Ignoring empty pin current: Ix(u_369:out)
Ignoring empty pin current: Ix(u_370:in)
Ignoring empty pin current: Ix(u_370:out)
Ignoring empty pin current: Ix(u_371:in)
Ignoring empty pin current: Ix(u_371:out)
Ignoring empty pin current: Ix(u_372:in)
Ignoring empty pin current: Ix(u_372:out)
Ignoring empty pin current: Ix(u_373:in)
Ignoring empty pin current: Ix(u_373:out)
Ignoring empty pin current: Ix(u_374:in)
Ignoring empty pin current: Ix(u_374:out)
Ignoring empty pin current: Ix(u_375:in)
Ignoring empty pin current: Ix(u_375:out)
Ignoring empty pin current: Ix(u_376:in)
Ignoring empty pin current: Ix(u_376:out)
Ignoring empty pin current: Ix(u_377:in)
Ignoring empty pin current: Ix(u_377:out)
Ignoring empty pin current: Ix(u_378:in)
Ignoring empty pin current: Ix(u_378:out)
Ignoring empty pin current: Ix(u_379:in)
Ignoring empty pin current: Ix(u_379:out)
Ignoring empty pin current: Ix(u_380:in)
Ignoring empty pin current: Ix(u_380:out)
Ignoring empty pin current: Ix(u_381:in)
Ignoring empty pin current: Ix(u_381:out)
Ignoring empty pin current: Ix(u_382:in)
Ignoring empty pin current: Ix(u_382:out)
Ignoring empty pin current: Ix(u_383:in)
Ignoring empty pin current: Ix(u_383:out)
Ignoring empty pin current: Ix(u_384:in)
Ignoring empty pin current: Ix(u_384:out)
Ignoring empty pin current: Ix(u_385:in)
Ignoring empty pin current: Ix(u_385:out)
Ignoring empty pin current: Ix(u_386:in)
Ignoring empty pin current: Ix(u_386:out)
Ignoring empty pin current: Ix(u_387:in)
Ignoring empty pin current: Ix(u_387:out)
Ignoring empty pin current: Ix(u_388:in)
Ignoring empty pin current: Ix(u_388:out)
Ignoring empty pin current: Ix(u_389:in)
Ignoring empty pin current: Ix(u_389:out)
Ignoring empty pin current: Ix(u_390:in)
Ignoring empty pin current: Ix(u_390:out)
Ignoring empty pin current: Ix(u_391:in)
Ignoring empty pin current: Ix(u_391:out)
Ignoring empty pin current: Ix(u_392:in)
Ignoring empty pin current: Ix(u_392:out)
Ignoring empty pin current: Ix(u_393:in)
Ignoring empty pin current: Ix(u_393:out)
Ignoring empty pin current: Ix(u_394:in)
Ignoring empty pin current: Ix(u_394:out)
Ignoring empty pin current: Ix(u_395:in)
Ignoring empty pin current: Ix(u_395:out)
Ignoring empty pin current: Ix(u_396:in)
Ignoring empty pin current: Ix(u_396:out)
Ignoring empty pin current: Ix(u_397:in)
Ignoring empty pin current: Ix(u_397:out)
Ignoring empty pin current: Ix(u_398:in)
Ignoring empty pin current: Ix(u_398:out)
Ignoring empty pin current: Ix(u_399:in)
Ignoring empty pin current: Ix(u_399:out)
Ignoring empty pin current: Ix(u_400:in)
Ignoring empty pin current: Ix(u_400:out)
Ignoring empty pin current: Ix(u_401:in)
Ignoring empty pin current: Ix(u_401:out)
Ignoring empty pin current: Ix(u_402:in)
Ignoring empty pin current: Ix(u_402:out)
Ignoring empty pin current: Ix(u_403:in)
Ignoring empty pin current: Ix(u_403:out)
Ignoring empty pin current: Ix(u_404:in)
Ignoring empty pin current: Ix(u_404:out)
Ignoring empty pin current: Ix(u_405:in)
Ignoring empty pin current: Ix(u_405:out)
Ignoring empty pin current: Ix(u_406:in)
Ignoring empty pin current: Ix(u_406:out)
Ignoring empty pin current: Ix(u_407:in)
Ignoring empty pin current: Ix(u_407:out)
Ignoring empty pin current: Ix(u_408:in)
Ignoring empty pin current: Ix(u_408:out)
Ignoring empty pin current: Ix(u_409:in)
Ignoring empty pin current: Ix(u_409:out)
Ignoring empty pin current: Ix(u_410:in)
Ignoring empty pin current: Ix(u_410:out)
Ignoring empty pin current: Ix(u_411:in)
Ignoring empty pin current: Ix(u_411:out)
Ignoring empty pin current: Ix(u_412:in)
Ignoring empty pin current: Ix(u_412:out)
Ignoring empty pin current: Ix(u_413:in)
Ignoring empty pin current: Ix(u_413:out)
Ignoring empty pin current: Ix(u_414:in)
Ignoring empty pin current: Ix(u_414:out)
Ignoring empty pin current: Ix(u_415:in)
Ignoring empty pin current: Ix(u_415:out)
Ignoring empty pin current: Ix(u_416:in)
Ignoring empty pin current: Ix(u_416:out)
Ignoring empty pin current: Ix(u_417:in)
Ignoring empty pin current: Ix(u_417:out)
Ignoring empty pin current: Ix(u_418:in)
Ignoring empty pin current: Ix(u_418:out)
Ignoring empty pin current: Ix(u_419:in)
Ignoring empty pin current: Ix(u_419:out)
Ignoring empty pin current: Ix(u_420:in)
Ignoring empty pin current: Ix(u_420:out)
Ignoring empty pin current: Ix(u_421:in)
Ignoring empty pin current: Ix(u_421:out)
Ignoring empty pin current: Ix(u_422:in)
Ignoring empty pin current: Ix(u_422:out)
Ignoring empty pin current: Ix(u_423:in)
Ignoring empty pin current: Ix(u_423:out)
Ignoring empty pin current: Ix(u_424:in)
Ignoring empty pin current: Ix(u_424:out)
Ignoring empty pin current: Ix(u_425:in)
Ignoring empty pin current: Ix(u_425:out)
Ignoring empty pin current: Ix(u_426:in)
Ignoring empty pin current: Ix(u_426:out)
Ignoring empty pin current: Ix(u_427:in)
Ignoring empty pin current: Ix(u_427:out)
Ignoring empty pin current: Ix(u_428:in)
Ignoring empty pin current: Ix(u_428:out)
Ignoring empty pin current: Ix(u_429:in)
Ignoring empty pin current: Ix(u_429:out)
Ignoring empty pin current: Ix(u_430:in)
Ignoring empty pin current: Ix(u_430:out)
Ignoring empty pin current: Ix(u_431:in)
Ignoring empty pin current: Ix(u_431:out)
Ignoring empty pin current: Ix(u_432:in)
Ignoring empty pin current: Ix(u_432:out)
Ignoring empty pin current: Ix(u_433:in)
Ignoring empty pin current: Ix(u_433:out)
Ignoring empty pin current: Ix(u_434:in)
Ignoring empty pin current: Ix(u_434:out)
Ignoring empty pin current: Ix(u_435:in)
Ignoring empty pin current: Ix(u_435:out)
Ignoring empty pin current: Ix(u_436:in)
Ignoring empty pin current: Ix(u_436:out)
Ignoring empty pin current: Ix(u_437:in)
Ignoring empty pin current: Ix(u_437:out)
Ignoring empty pin current: Ix(u_438:in)
Ignoring empty pin current: Ix(u_438:out)
Ignoring empty pin current: Ix(u_439:in)
Ignoring empty pin current: Ix(u_439:out)
Ignoring empty pin current: Ix(u_440:in)
Ignoring empty pin current: Ix(u_440:out)
Ignoring empty pin current: Ix(u_441:in)
Ignoring empty pin current: Ix(u_441:out)
Ignoring empty pin current: Ix(u_442:in)
Ignoring empty pin current: Ix(u_442:out)
Ignoring empty pin current: Ix(u_443:in)
Ignoring empty pin current: Ix(u_443:out)
Ignoring empty pin current: Ix(u_444:in)
Ignoring empty pin current: Ix(u_444:out)
Ignoring empty pin current: Ix(u_445:in)
Ignoring empty pin current: Ix(u_445:out)
Ignoring empty pin current: Ix(u_446:in)
Ignoring empty pin current: Ix(u_446:out)
Ignoring empty pin current: Ix(u_447:in)
Ignoring empty pin current: Ix(u_447:out)
Ignoring empty pin current: Ix(u_448:in)
Ignoring empty pin current: Ix(u_448:out)
Ignoring empty pin current: Ix(u_449:in)
Ignoring empty pin current: Ix(u_449:out)
Ignoring empty pin current: Ix(u_450:in)
Ignoring empty pin current: Ix(u_450:out)
Ignoring empty pin current: Ix(u_451:in)
Ignoring empty pin current: Ix(u_451:out)
Ignoring empty pin current: Ix(u_452:in)
Ignoring empty pin current: Ix(u_452:out)
Ignoring empty pin current: Ix(u_453:in)
Ignoring empty pin current: Ix(u_453:out)
Ignoring empty pin current: Ix(u_454:in)
Ignoring empty pin current: Ix(u_454:out)
Ignoring empty pin current: Ix(u_455:in)
Ignoring empty pin current: Ix(u_455:out)
Ignoring empty pin current: Ix(u_456:in)
Ignoring empty pin current: Ix(u_456:out)
Ignoring empty pin current: Ix(u_457:in)
Ignoring empty pin current: Ix(u_457:out)
Ignoring empty pin current: Ix(u_458:in)
Ignoring empty pin current: Ix(u_458:out)
Ignoring empty pin current: Ix(u_459:in)
Ignoring empty pin current: Ix(u_459:out)
Ignoring empty pin current: Ix(u_460:in)
Ignoring empty pin current: Ix(u_460:out)
Ignoring empty pin current: Ix(u_461:in)
Ignoring empty pin current: Ix(u_461:out)
Ignoring empty pin current: Ix(u_462:in)
Ignoring empty pin current: Ix(u_462:out)
Ignoring empty pin current: Ix(u_463:in)
Ignoring empty pin current: Ix(u_463:out)
Ignoring empty pin current: Ix(u_464:in)
Ignoring empty pin current: Ix(u_464:out)
Ignoring empty pin current: Ix(u_465:in)
Ignoring empty pin current: Ix(u_465:out)
Ignoring empty pin current: Ix(u_466:in)
Ignoring empty pin current: Ix(u_466:out)
Ignoring empty pin current: Ix(u_467:in)
Ignoring empty pin current: Ix(u_467:out)
Ignoring empty pin current: Ix(u_468:in)
Ignoring empty pin current: Ix(u_468:out)
Ignoring empty pin current: Ix(u_469:in)
Ignoring empty pin current: Ix(u_469:out)
Ignoring empty pin current: Ix(u_470:in)
Ignoring empty pin current: Ix(u_470:out)
Ignoring empty pin current: Ix(u_471:in)
Ignoring empty pin current: Ix(u_471:out)
Ignoring empty pin current: Ix(u_472:in)
Ignoring empty pin current: Ix(u_472:out)
Ignoring empty pin current: Ix(u_473:in)
Ignoring empty pin current: Ix(u_473:out)
Ignoring empty pin current: Ix(u_474:in)
Ignoring empty pin current: Ix(u_474:out)
Ignoring empty pin current: Ix(u_475:in)
Ignoring empty pin current: Ix(u_475:out)
Ignoring empty pin current: Ix(u_476:in)
Ignoring empty pin current: Ix(u_476:out)
Ignoring empty pin current: Ix(u_477:in)
Ignoring empty pin current: Ix(u_477:out)
Ignoring empty pin current: Ix(u_478:in)
Ignoring empty pin current: Ix(u_478:out)
Ignoring empty pin current: Ix(u_479:in)
Ignoring empty pin current: Ix(u_479:out)
Ignoring empty pin current: Ix(u_480:in)
Ignoring empty pin current: Ix(u_480:out)
Ignoring empty pin current: Ix(u_481:in)
Ignoring empty pin current: Ix(u_481:out)
Ignoring empty pin current: Ix(u_482:in)
Ignoring empty pin current: Ix(u_482:out)
Ignoring empty pin current: Ix(u_483:in)
Ignoring empty pin current: Ix(u_483:out)
Ignoring empty pin current: Ix(u_484:in)
Ignoring empty pin current: Ix(u_484:out)
Ignoring empty pin current: Ix(u_485:in)
Ignoring empty pin current: Ix(u_485:out)
Ignoring empty pin current: Ix(u_486:in)
Ignoring empty pin current: Ix(u_486:out)
Ignoring empty pin current: Ix(u_487:in)
Ignoring empty pin current: Ix(u_487:out)
Ignoring empty pin current: Ix(u_488:in)
Ignoring empty pin current: Ix(u_488:out)
Ignoring empty pin current: Ix(u_489:in)
Ignoring empty pin current: Ix(u_489:out)
Ignoring empty pin current: Ix(u_490:in)
Ignoring empty pin current: Ix(u_490:out)
Ignoring empty pin current: Ix(u_491:in)
Ignoring empty pin current: Ix(u_491:out)
Ignoring empty pin current: Ix(u_492:in)
Ignoring empty pin current: Ix(u_492:out)
Ignoring empty pin current: Ix(u_493:in)
Ignoring empty pin current: Ix(u_493:out)
Ignoring empty pin current: Ix(u_494:in)
Ignoring empty pin current: Ix(u_494:out)
Ignoring empty pin current: Ix(u_495:in)
Ignoring empty pin current: Ix(u_495:out)
Ignoring empty pin current: Ix(u_496:in)
Ignoring empty pin current: Ix(u_496:out)
Ignoring empty pin current: Ix(u_497:in)
Ignoring empty pin current: Ix(u_497:out)
Ignoring empty pin current: Ix(u_498:in)
Ignoring empty pin current: Ix(u_498:out)
Ignoring empty pin current: Ix(u_499:in)
Ignoring empty pin current: Ix(u_499:out)
Ignoring empty pin current: Ix(u_500:in)
Ignoring empty pin current: Ix(u_500:out)
Ignoring empty pin current: Ix(u_501:in)
Ignoring empty pin current: Ix(u_501:out)
Ignoring empty pin current: Ix(u_502:in)
Ignoring empty pin current: Ix(u_502:out)
Ignoring empty pin current: Ix(u_503:in)
Ignoring empty pin current: Ix(u_503:out)
Ignoring empty pin current: Ix(u_504:in)
Ignoring empty pin current: Ix(u_504:out)
Ignoring empty pin current: Ix(u_505:in)
Ignoring empty pin current: Ix(u_505:out)
Ignoring empty pin current: Ix(u_506:in)
Ignoring empty pin current: Ix(u_506:out)
Ignoring empty pin current: Ix(u_507:in)
Ignoring empty pin current: Ix(u_507:out)
Ignoring empty pin current: Ix(u_508:in)
Ignoring empty pin current: Ix(u_508:out)
Ignoring empty pin current: Ix(u_509:in)
Ignoring empty pin current: Ix(u_509:out)
Ignoring empty pin current: Ix(u_510:in)
Ignoring empty pin current: Ix(u_510:out)
Ignoring empty pin current: Ix(u_511:in)
Ignoring empty pin current: Ix(u_511:out)
Ignoring empty pin current: Ix(u_512:in)
Ignoring empty pin current: Ix(u_512:out)
Ignoring empty pin current: Ix(u_513:in)
Ignoring empty pin current: Ix(u_513:out)
Ignoring empty pin current: Ix(u_514:in)
Ignoring empty pin current: Ix(u_514:out)
Ignoring empty pin current: Ix(u_515:in)
Ignoring empty pin current: Ix(u_515:out)
Ignoring empty pin current: Ix(u_516:in)
Ignoring empty pin current: Ix(u_516:out)
Ignoring empty pin current: Ix(u_517:in)
Ignoring empty pin current: Ix(u_517:out)
Ignoring empty pin current: Ix(u_518:in)
Ignoring empty pin current: Ix(u_518:out)
Ignoring empty pin current: Ix(u_519:in)
Ignoring empty pin current: Ix(u_519:out)
Ignoring empty pin current: Ix(u_520:in)
Ignoring empty pin current: Ix(u_520:out)
Ignoring empty pin current: Ix(u_521:in)
Ignoring empty pin current: Ix(u_521:out)
Ignoring empty pin current: Ix(u_522:in)
Ignoring empty pin current: Ix(u_522:out)
Ignoring empty pin current: Ix(u_523:in)
Ignoring empty pin current: Ix(u_523:out)
Ignoring empty pin current: Ix(u_524:in)
Ignoring empty pin current: Ix(u_524:out)
Ignoring empty pin current: Ix(u_525:in)
Ignoring empty pin current: Ix(u_525:out)
Ignoring empty pin current: Ix(u_526:in)
Ignoring empty pin current: Ix(u_526:out)
Ignoring empty pin current: Ix(u_527:in)
Ignoring empty pin current: Ix(u_527:out)
Ignoring empty pin current: Ix(u_528:in)
Ignoring empty pin current: Ix(u_528:out)
Ignoring empty pin current: Ix(u_529:in)
Ignoring empty pin current: Ix(u_529:out)
Ignoring empty pin current: Ix(u_530:in)
Ignoring empty pin current: Ix(u_530:out)
Ignoring empty pin current: Ix(u_531:in)
Ignoring empty pin current: Ix(u_531:out)
Ignoring empty pin current: Ix(u_532:in)
Ignoring empty pin current: Ix(u_532:out)
Ignoring empty pin current: Ix(u_533:in)
Ignoring empty pin current: Ix(u_533:out)
Ignoring empty pin current: Ix(u_534:in)
Ignoring empty pin current: Ix(u_534:out)
Ignoring empty pin current: Ix(u_535:in)
Ignoring empty pin current: Ix(u_535:out)
Ignoring empty pin current: Ix(u_536:in)
Ignoring empty pin current: Ix(u_536:out)
Ignoring empty pin current: Ix(u_537:in)
Ignoring empty pin current: Ix(u_537:out)
Ignoring empty pin current: Ix(u_538:in)
Ignoring empty pin current: Ix(u_538:out)
Ignoring empty pin current: Ix(u_539:in)
Ignoring empty pin current: Ix(u_539:out)
Ignoring empty pin current: Ix(u_540:in)
Ignoring empty pin current: Ix(u_540:out)
Ignoring empty pin current: Ix(u_541:in)
Ignoring empty pin current: Ix(u_541:out)
Ignoring empty pin current: Ix(u_542:in)
Ignoring empty pin current: Ix(u_542:out)
Ignoring empty pin current: Ix(u_543:in)
Ignoring empty pin current: Ix(u_543:out)
Ignoring empty pin current: Ix(u_544:in)
Ignoring empty pin current: Ix(u_544:out)
Ignoring empty pin current: Ix(u_545:in)
Ignoring empty pin current: Ix(u_545:out)
Ignoring empty pin current: Ix(u_546:in)
Ignoring empty pin current: Ix(u_546:out)
Ignoring empty pin current: Ix(u_547:in)
Ignoring empty pin current: Ix(u_547:out)
Ignoring empty pin current: Ix(u_548:in)
Ignoring empty pin current: Ix(u_548:out)
Ignoring empty pin current: Ix(u_549:in)
Ignoring empty pin current: Ix(u_549:out)
Ignoring empty pin current: Ix(u_550:in)
Ignoring empty pin current: Ix(u_550:out)
Ignoring empty pin current: Ix(u_551:in)
Ignoring empty pin current: Ix(u_551:out)
Ignoring empty pin current: Ix(u_552:in)
Ignoring empty pin current: Ix(u_552:out)
Ignoring empty pin current: Ix(u_553:in)
Ignoring empty pin current: Ix(u_553:out)
Ignoring empty pin current: Ix(u_554:in)
Ignoring empty pin current: Ix(u_554:out)
Ignoring empty pin current: Ix(u_555:in)
Ignoring empty pin current: Ix(u_555:out)
Ignoring empty pin current: Ix(u_556:in)
Ignoring empty pin current: Ix(u_556:out)
Ignoring empty pin current: Ix(u_557:in)
Ignoring empty pin current: Ix(u_557:out)
Ignoring empty pin current: Ix(u_558:in)
Ignoring empty pin current: Ix(u_558:out)
Ignoring empty pin current: Ix(u_559:in)
Ignoring empty pin current: Ix(u_559:out)
Ignoring empty pin current: Ix(u_560:in)
Ignoring empty pin current: Ix(u_560:out)
Ignoring empty pin current: Ix(u_561:in)
Ignoring empty pin current: Ix(u_561:out)
Ignoring empty pin current: Ix(u_562:in)
Ignoring empty pin current: Ix(u_562:out)
Ignoring empty pin current: Ix(u_563:in)
Ignoring empty pin current: Ix(u_563:out)
Ignoring empty pin current: Ix(u_564:in)
Ignoring empty pin current: Ix(u_564:out)
Ignoring empty pin current: Ix(u_565:in)
Ignoring empty pin current: Ix(u_565:out)
Ignoring empty pin current: Ix(u_566:in)
Ignoring empty pin current: Ix(u_566:out)
Ignoring empty pin current: Ix(u_567:in)
Ignoring empty pin current: Ix(u_567:out)
Ignoring empty pin current: Ix(u_568:in)
Ignoring empty pin current: Ix(u_568:out)
Ignoring empty pin current: Ix(u_569:in)
Ignoring empty pin current: Ix(u_569:out)
Ignoring empty pin current: Ix(u_570:in)
Ignoring empty pin current: Ix(u_570:out)
Ignoring empty pin current: Ix(u_571:in)
Ignoring empty pin current: Ix(u_571:out)
Ignoring empty pin current: Ix(u_572:in)
Ignoring empty pin current: Ix(u_572:out)
Ignoring empty pin current: Ix(u_573:in)
Ignoring empty pin current: Ix(u_573:out)
Ignoring empty pin current: Ix(u_574:in)
Ignoring empty pin current: Ix(u_574:out)
Ignoring empty pin current: Ix(u_575:in)
Ignoring empty pin current: Ix(u_575:out)
Ignoring empty pin current: Ix(u_576:in)
Ignoring empty pin current: Ix(u_576:out)
Ignoring empty pin current: Ix(u_577:in)
Ignoring empty pin current: Ix(u_577:out)
Ignoring empty pin current: Ix(u_578:in)
Ignoring empty pin current: Ix(u_578:out)
Ignoring empty pin current: Ix(u_579:in)
Ignoring empty pin current: Ix(u_579:out)
Ignoring empty pin current: Ix(u_580:in)
Ignoring empty pin current: Ix(u_580:out)
Ignoring empty pin current: Ix(u_581:in)
Ignoring empty pin current: Ix(u_581:out)
Ignoring empty pin current: Ix(u_582:in)
Ignoring empty pin current: Ix(u_582:out)
Ignoring empty pin current: Ix(u_583:in)
Ignoring empty pin current: Ix(u_583:out)
Ignoring empty pin current: Ix(u_584:in)
Ignoring empty pin current: Ix(u_584:out)
Ignoring empty pin current: Ix(u_585:in)
Ignoring empty pin current: Ix(u_585:out)
Ignoring empty pin current: Ix(u_586:in)
Ignoring empty pin current: Ix(u_586:out)
Ignoring empty pin current: Ix(u_587:in)
Ignoring empty pin current: Ix(u_587:out)
Ignoring empty pin current: Ix(u_588:in)
Ignoring empty pin current: Ix(u_588:out)
Ignoring empty pin current: Ix(u_589:in)
Ignoring empty pin current: Ix(u_589:out)
Ignoring empty pin current: Ix(u_590:in)
Ignoring empty pin current: Ix(u_590:out)
Ignoring empty pin current: Ix(u_591:in)
Ignoring empty pin current: Ix(u_591:out)
Ignoring empty pin current: Ix(u_592:in)
Ignoring empty pin current: Ix(u_592:out)
Ignoring empty pin current: Ix(u_593:in)
Ignoring empty pin current: Ix(u_593:out)
Ignoring empty pin current: Ix(u_594:in)
Ignoring empty pin current: Ix(u_594:out)
Ignoring empty pin current: Ix(u_595:in)
Ignoring empty pin current: Ix(u_595:out)
Ignoring empty pin current: Ix(u_596:in)
Ignoring empty pin current: Ix(u_596:out)
Ignoring empty pin current: Ix(u_597:in)
Ignoring empty pin current: Ix(u_597:out)
Ignoring empty pin current: Ix(u_598:in)
Ignoring empty pin current: Ix(u_598:out)
Ignoring empty pin current: Ix(u_599:in)
Ignoring empty pin current: Ix(u_599:out)
Ignoring empty pin current: Ix(u_600:in)
Ignoring empty pin current: Ix(u_600:out)
Ignoring empty pin current: Ix(u_601:in)
Ignoring empty pin current: Ix(u_601:out)
Ignoring empty pin current: Ix(u_602:in)
Ignoring empty pin current: Ix(u_602:out)
Ignoring empty pin current: Ix(u_603:in)
Ignoring empty pin current: Ix(u_603:out)
Ignoring empty pin current: Ix(u_604:in)
Ignoring empty pin current: Ix(u_604:out)
Ignoring empty pin current: Ix(u_605:in)
Ignoring empty pin current: Ix(u_605:out)
Ignoring empty pin current: Ix(u_606:in)
Ignoring empty pin current: Ix(u_606:out)
Ignoring empty pin current: Ix(u_607:in)
Ignoring empty pin current: Ix(u_607:out)
Ignoring empty pin current: Ix(u_608:in)
Ignoring empty pin current: Ix(u_608:out)
Ignoring empty pin current: Ix(u_609:in)
Ignoring empty pin current: Ix(u_609:out)
Ignoring empty pin current: Ix(u_610:in)
Ignoring empty pin current: Ix(u_610:out)
Ignoring empty pin current: Ix(u_611:in)
Ignoring empty pin current: Ix(u_611:out)
Ignoring empty pin current: Ix(u_612:in)
Ignoring empty pin current: Ix(u_612:out)
Ignoring empty pin current: Ix(u_613:in)
Ignoring empty pin current: Ix(u_613:out)
Ignoring empty pin current: Ix(u_614:in)
Ignoring empty pin current: Ix(u_614:out)
Ignoring empty pin current: Ix(u_615:in)
Ignoring empty pin current: Ix(u_615:out)
Ignoring empty pin current: Ix(u_616:in)
Ignoring empty pin current: Ix(u_616:out)
Ignoring empty pin current: Ix(u_617:in)
Ignoring empty pin current: Ix(u_617:out)
Ignoring empty pin current: Ix(u_618:in)
Ignoring empty pin current: Ix(u_618:out)
Ignoring empty pin current: Ix(u_619:in)
Ignoring empty pin current: Ix(u_619:out)
Ignoring empty pin current: Ix(u_620:in)
Ignoring empty pin current: Ix(u_620:out)
Ignoring empty pin current: Ix(u_621:in)
Ignoring empty pin current: Ix(u_621:out)
Ignoring empty pin current: Ix(u_622:in)
Ignoring empty pin current: Ix(u_622:out)
Ignoring empty pin current: Ix(u_623:in)
Ignoring empty pin current: Ix(u_623:out)
Ignoring empty pin current: Ix(u_624:in)
Ignoring empty pin current: Ix(u_624:out)
Ignoring empty pin current: Ix(u_625:in)
Ignoring empty pin current: Ix(u_625:out)
Ignoring empty pin current: Ix(u_626:in)
Ignoring empty pin current: Ix(u_626:out)
Ignoring empty pin current: Ix(u_627:in)
Ignoring empty pin current: Ix(u_627:out)
Ignoring empty pin current: Ix(u_628:in)
Ignoring empty pin current: Ix(u_628:out)
Ignoring empty pin current: Ix(u_629:in)
Ignoring empty pin current: Ix(u_629:out)
Ignoring empty pin current: Ix(u_630:in)
Ignoring empty pin current: Ix(u_630:out)
Ignoring empty pin current: Ix(u_631:in)
Ignoring empty pin current: Ix(u_631:out)
Ignoring empty pin current: Ix(u_632:in)
Ignoring empty pin current: Ix(u_632:out)
Ignoring empty pin current: Ix(u_633:in)
Ignoring empty pin current: Ix(u_633:out)
Ignoring empty pin current: Ix(u_634:in)
Ignoring empty pin current: Ix(u_634:out)
Ignoring empty pin current: Ix(u_635:in)
Ignoring empty pin current: Ix(u_635:out)
Ignoring empty pin current: Ix(u_636:in)
Ignoring empty pin current: Ix(u_636:out)
Ignoring empty pin current: Ix(u_637:in)
Ignoring empty pin current: Ix(u_637:out)
Ignoring empty pin current: Ix(u_638:in)
Ignoring empty pin current: Ix(u_638:out)
Ignoring empty pin current: Ix(u_639:in)
Ignoring empty pin current: Ix(u_639:out)
Ignoring empty pin current: Ix(u_640:in)
Ignoring empty pin current: Ix(u_640:out)
Ignoring empty pin current: Ix(u_641:in)
Ignoring empty pin current: Ix(u_641:out)
Ignoring empty pin current: Ix(u_642:in)
Ignoring empty pin current: Ix(u_642:out)
Ignoring empty pin current: Ix(u_643:in)
Ignoring empty pin current: Ix(u_643:out)
Ignoring empty pin current: Ix(u_644:in)
Ignoring empty pin current: Ix(u_644:out)
Ignoring empty pin current: Ix(u_645:in)
Ignoring empty pin current: Ix(u_645:out)
Ignoring empty pin current: Ix(u_646:in)
Ignoring empty pin current: Ix(u_646:out)
Ignoring empty pin current: Ix(u_647:in)
Ignoring empty pin current: Ix(u_647:out)
Ignoring empty pin current: Ix(u_648:in)
Ignoring empty pin current: Ix(u_648:out)
Ignoring empty pin current: Ix(u_649:in)
Ignoring empty pin current: Ix(u_649:out)
Ignoring empty pin current: Ix(u_650:in)
Ignoring empty pin current: Ix(u_650:out)
Ignoring empty pin current: Ix(u_651:in)
Ignoring empty pin current: Ix(u_651:out)
Ignoring empty pin current: Ix(u_652:in)
Ignoring empty pin current: Ix(u_652:out)
Ignoring empty pin current: Ix(u_653:in)
Ignoring empty pin current: Ix(u_653:out)
Ignoring empty pin current: Ix(u_654:in)
Ignoring empty pin current: Ix(u_654:out)
Ignoring empty pin current: Ix(u_655:in)
Ignoring empty pin current: Ix(u_655:out)
Ignoring empty pin current: Ix(u_656:in)
Ignoring empty pin current: Ix(u_656:out)
Ignoring empty pin current: Ix(u_657:in)
Ignoring empty pin current: Ix(u_657:out)
Ignoring empty pin current: Ix(u_658:in)
Ignoring empty pin current: Ix(u_658:out)
Ignoring empty pin current: Ix(u_659:in)
Ignoring empty pin current: Ix(u_659:out)
Ignoring empty pin current: Ix(u_660:in)
Ignoring empty pin current: Ix(u_660:out)
Ignoring empty pin current: Ix(u_661:in)
Ignoring empty pin current: Ix(u_661:out)
Ignoring empty pin current: Ix(u_662:in)
Ignoring empty pin current: Ix(u_662:out)
Ignoring empty pin current: Ix(u_663:in)
Ignoring empty pin current: Ix(u_663:out)
Ignoring empty pin current: Ix(u_664:in)
Ignoring empty pin current: Ix(u_664:out)
Ignoring empty pin current: Ix(u_665:in)
Ignoring empty pin current: Ix(u_665:out)
Ignoring empty pin current: Ix(u_666:in)
Ignoring empty pin current: Ix(u_666:out)
Ignoring empty pin current: Ix(u_667:in)
Ignoring empty pin current: Ix(u_667:out)
Ignoring empty pin current: Ix(u_668:in)
Ignoring empty pin current: Ix(u_668:out)
Ignoring empty pin current: Ix(u_669:in)
Ignoring empty pin current: Ix(u_669:out)
Ignoring empty pin current: Ix(u_670:in)
Ignoring empty pin current: Ix(u_670:out)
Ignoring empty pin current: Ix(u_671:in)
Ignoring empty pin current: Ix(u_671:out)
Ignoring empty pin current: Ix(u_672:in)
Ignoring empty pin current: Ix(u_672:out)
Ignoring empty pin current: Ix(u_673:in)
Ignoring empty pin current: Ix(u_673:out)
Ignoring empty pin current: Ix(u_674:in)
Ignoring empty pin current: Ix(u_674:out)
Ignoring empty pin current: Ix(u_675:in)
Ignoring empty pin current: Ix(u_675:out)
Ignoring empty pin current: Ix(u_676:in)
Ignoring empty pin current: Ix(u_676:out)
Ignoring empty pin current: Ix(u_677:in)
Ignoring empty pin current: Ix(u_677:out)
Ignoring empty pin current: Ix(u_678:in)
Ignoring empty pin current: Ix(u_678:out)
Ignoring empty pin current: Ix(u_679:in)
Ignoring empty pin current: Ix(u_679:out)
Ignoring empty pin current: Ix(u_680:in)
Ignoring empty pin current: Ix(u_680:out)
Ignoring empty pin current: Ix(u_681:in)
Ignoring empty pin current: Ix(u_681:out)
Ignoring empty pin current: Ix(u_682:in)
Ignoring empty pin current: Ix(u_682:out)
Ignoring empty pin current: Ix(u_683:in)
Ignoring empty pin current: Ix(u_683:out)
Ignoring empty pin current: Ix(u_684:in)
Ignoring empty pin current: Ix(u_684:out)
Ignoring empty pin current: Ix(u_685:in)
Ignoring empty pin current: Ix(u_685:out)
Ignoring empty pin current: Ix(u_686:in)
Ignoring empty pin current: Ix(u_686:out)
Ignoring empty pin current: Ix(u_687:in)
Ignoring empty pin current: Ix(u_687:out)
Ignoring empty pin current: Ix(u_688:in)
Ignoring empty pin current: Ix(u_688:out)
Ignoring empty pin current: Ix(u_689:in)
Ignoring empty pin current: Ix(u_689:out)
Ignoring empty pin current: Ix(u_690:in)
Ignoring empty pin current: Ix(u_690:out)
Ignoring empty pin current: Ix(u_691:in)
Ignoring empty pin current: Ix(u_691:out)
Ignoring empty pin current: Ix(u_692:in)
Ignoring empty pin current: Ix(u_692:out)
Ignoring empty pin current: Ix(u_693:in)
Ignoring empty pin current: Ix(u_693:out)
Ignoring empty pin current: Ix(u_694:in)
Ignoring empty pin current: Ix(u_694:out)
Ignoring empty pin current: Ix(u_695:in)
Ignoring empty pin current: Ix(u_695:out)
Ignoring empty pin current: Ix(u_696:in)
Ignoring empty pin current: Ix(u_696:out)
Ignoring empty pin current: Ix(u_697:in)
Ignoring empty pin current: Ix(u_697:out)
Ignoring empty pin current: Ix(u_698:in)
Ignoring empty pin current: Ix(u_698:out)
Ignoring empty pin current: Ix(u_699:in)
Ignoring empty pin current: Ix(u_699:out)
Ignoring empty pin current: Ix(u_700:in)
Ignoring empty pin current: Ix(u_700:out)
Ignoring empty pin current: Ix(u_701:in)
Ignoring empty pin current: Ix(u_701:out)
Ignoring empty pin current: Ix(u_702:in)
Ignoring empty pin current: Ix(u_702:out)
Ignoring empty pin current: Ix(u_703:in)
Ignoring empty pin current: Ix(u_703:out)
Ignoring empty pin current: Ix(u_704:in)
Ignoring empty pin current: Ix(u_704:out)
Ignoring empty pin current: Ix(u_705:in)
Ignoring empty pin current: Ix(u_705:out)
Ignoring empty pin current: Ix(u_706:in)
Ignoring empty pin current: Ix(u_706:out)
Ignoring empty pin current: Ix(u_707:in)
Ignoring empty pin current: Ix(u_707:out)
Ignoring empty pin current: Ix(u_708:in)
Ignoring empty pin current: Ix(u_708:out)
Ignoring empty pin current: Ix(u_709:in)
Ignoring empty pin current: Ix(u_709:out)
Ignoring empty pin current: Ix(u_710:in)
Ignoring empty pin current: Ix(u_710:out)
Ignoring empty pin current: Ix(u_711:in)
Ignoring empty pin current: Ix(u_711:out)
Ignoring empty pin current: Ix(u_712:in)
Ignoring empty pin current: Ix(u_712:out)
Ignoring empty pin current: Ix(u_713:in)
Ignoring empty pin current: Ix(u_713:out)
Ignoring empty pin current: Ix(u_714:in)
Ignoring empty pin current: Ix(u_714:out)
Ignoring empty pin current: Ix(u_715:in)
Ignoring empty pin current: Ix(u_715:out)
Ignoring empty pin current: Ix(u_716:in)
Ignoring empty pin current: Ix(u_716:out)
Ignoring empty pin current: Ix(u_717:in)
Ignoring empty pin current: Ix(u_717:out)
Ignoring empty pin current: Ix(u_718:in)
Ignoring empty pin current: Ix(u_718:out)
Ignoring empty pin current: Ix(u_719:in)
Ignoring empty pin current: Ix(u_719:out)
Ignoring empty pin current: Ix(u_720:in)
Ignoring empty pin current: Ix(u_720:out)
Ignoring empty pin current: Ix(u_721:in)
Ignoring empty pin current: Ix(u_721:out)
Ignoring empty pin current: Ix(u_722:in)
Ignoring empty pin current: Ix(u_722:out)
Ignoring empty pin current: Ix(u_723:in)
Ignoring empty pin current: Ix(u_723:out)
Ignoring empty pin current: Ix(u_724:in)
Ignoring empty pin current: Ix(u_724:out)
Ignoring empty pin current: Ix(u_725:in)
Ignoring empty pin current: Ix(u_725:out)
Ignoring empty pin current: Ix(u_726:in)
Ignoring empty pin current: Ix(u_726:out)
Ignoring empty pin current: Ix(u_727:in)
Ignoring empty pin current: Ix(u_727:out)
Ignoring empty pin current: Ix(u_728:in)
Ignoring empty pin current: Ix(u_728:out)
Ignoring empty pin current: Ix(u_729:in)
Ignoring empty pin current: Ix(u_729:out)
Ignoring empty pin current: Ix(u_730:in)
Ignoring empty pin current: Ix(u_730:out)
Ignoring empty pin current: Ix(u_731:in)
Ignoring empty pin current: Ix(u_731:out)
Ignoring empty pin current: Ix(u_732:in)
Ignoring empty pin current: Ix(u_732:out)
Ignoring empty pin current: Ix(u_733:in)
Ignoring empty pin current: Ix(u_733:out)
Ignoring empty pin current: Ix(u_734:in)
Ignoring empty pin current: Ix(u_734:out)
Ignoring empty pin current: Ix(u_735:in)
Ignoring empty pin current: Ix(u_735:out)
Ignoring empty pin current: Ix(u_736:in)
Ignoring empty pin current: Ix(u_736:out)
Ignoring empty pin current: Ix(u_737:in)
Ignoring empty pin current: Ix(u_737:out)
Ignoring empty pin current: Ix(u_738:in)
Ignoring empty pin current: Ix(u_738:out)
Ignoring empty pin current: Ix(u_739:in)
Ignoring empty pin current: Ix(u_739:out)
Ignoring empty pin current: Ix(u_740:in)
Ignoring empty pin current: Ix(u_740:out)
Ignoring empty pin current: Ix(u_741:in)
Ignoring empty pin current: Ix(u_741:out)
Ignoring empty pin current: Ix(u_742:in)
Ignoring empty pin current: Ix(u_742:out)
Ignoring empty pin current: Ix(u_743:in)
Ignoring empty pin current: Ix(u_743:out)
Ignoring empty pin current: Ix(u_744:in)
Ignoring empty pin current: Ix(u_744:out)
Ignoring empty pin current: Ix(u_745:in)
Ignoring empty pin current: Ix(u_745:out)
Ignoring empty pin current: Ix(u_746:in)
Ignoring empty pin current: Ix(u_746:out)
Ignoring empty pin current: Ix(u_747:in)
Ignoring empty pin current: Ix(u_747:out)
Ignoring empty pin current: Ix(u_748:in)
Ignoring empty pin current: Ix(u_748:out)
Ignoring empty pin current: Ix(u_749:in)
Ignoring empty pin current: Ix(u_749:out)
Ignoring empty pin current: Ix(u_750:in)
Ignoring empty pin current: Ix(u_750:out)
Ignoring empty pin current: Ix(u_751:in)
Ignoring empty pin current: Ix(u_751:out)
Ignoring empty pin current: Ix(u_752:in)
Ignoring empty pin current: Ix(u_752:out)
Ignoring empty pin current: Ix(u_753:in)
Ignoring empty pin current: Ix(u_753:out)
Ignoring empty pin current: Ix(u_754:in)
Ignoring empty pin current: Ix(u_754:out)
Ignoring empty pin current: Ix(u_755:in)
Ignoring empty pin current: Ix(u_755:out)
Ignoring empty pin current: Ix(u_756:in)
Ignoring empty pin current: Ix(u_756:out)
Ignoring empty pin current: Ix(u_757:in)
Ignoring empty pin current: Ix(u_757:out)
Ignoring empty pin current: Ix(u_758:in)
Ignoring empty pin current: Ix(u_758:out)
Ignoring empty pin current: Ix(u_759:in)
Ignoring empty pin current: Ix(u_759:out)
Ignoring empty pin current: Ix(u_760:in)
Ignoring empty pin current: Ix(u_760:out)
Ignoring empty pin current: Ix(u_761:in)
Ignoring empty pin current: Ix(u_761:out)
Ignoring empty pin current: Ix(u_762:in)
Ignoring empty pin current: Ix(u_762:out)
Ignoring empty pin current: Ix(u_763:in)
Ignoring empty pin current: Ix(u_763:out)
Ignoring empty pin current: Ix(u_764:in)
Ignoring empty pin current: Ix(u_764:out)
Ignoring empty pin current: Ix(u_765:in)
Ignoring empty pin current: Ix(u_765:out)
Ignoring empty pin current: Ix(u_766:in)
Ignoring empty pin current: Ix(u_766:out)
Ignoring empty pin current: Ix(u_767:in)
Ignoring empty pin current: Ix(u_767:out)
Ignoring empty pin current: Ix(u_768:in)
Ignoring empty pin current: Ix(u_768:out)
Ignoring empty pin current: Ix(u_769:in)
Ignoring empty pin current: Ix(u_769:out)
Ignoring empty pin current: Ix(u_770:in)
Ignoring empty pin current: Ix(u_770:out)
Ignoring empty pin current: Ix(u_771:in)
Ignoring empty pin current: Ix(u_771:out)
Ignoring empty pin current: Ix(u_772:in)
Ignoring empty pin current: Ix(u_772:out)
Ignoring empty pin current: Ix(u_773:in)
Ignoring empty pin current: Ix(u_773:out)
Ignoring empty pin current: Ix(u_774:in)
Ignoring empty pin current: Ix(u_774:out)
Ignoring empty pin current: Ix(u_775:in)
Ignoring empty pin current: Ix(u_775:out)
Ignoring empty pin current: Ix(u_776:in)
Ignoring empty pin current: Ix(u_776:out)
Ignoring empty pin current: Ix(u_777:in)
Ignoring empty pin current: Ix(u_777:out)
Ignoring empty pin current: Ix(u_778:in)
Ignoring empty pin current: Ix(u_778:out)
Ignoring empty pin current: Ix(u_779:in)
Ignoring empty pin current: Ix(u_779:out)
Ignoring empty pin current: Ix(u_780:in)
Ignoring empty pin current: Ix(u_780:out)
Ignoring empty pin current: Ix(u_781:in)
Ignoring empty pin current: Ix(u_781:out)
Ignoring empty pin current: Ix(u_782:in)
Ignoring empty pin current: Ix(u_782:out)
Ignoring empty pin current: Ix(u_783:in)
Ignoring empty pin current: Ix(u_783:out)
Ignoring empty pin current: Ix(u_784:in)
Ignoring empty pin current: Ix(u_784:out)
Ignoring empty pin current: Ix(u_785:in)
Ignoring empty pin current: Ix(u_785:out)
Ignoring empty pin current: Ix(u_786:in)
Ignoring empty pin current: Ix(u_786:out)
Ignoring empty pin current: Ix(u_787:in)
Ignoring empty pin current: Ix(u_787:out)
Ignoring empty pin current: Ix(u_788:in)
Ignoring empty pin current: Ix(u_788:out)
Ignoring empty pin current: Ix(u_789:in)
Ignoring empty pin current: Ix(u_789:out)
Ignoring empty pin current: Ix(u_790:in)
Ignoring empty pin current: Ix(u_790:out)
Ignoring empty pin current: Ix(u_791:in)
Ignoring empty pin current: Ix(u_791:out)
Ignoring empty pin current: Ix(u_792:in)
Ignoring empty pin current: Ix(u_792:out)
Ignoring empty pin current: Ix(u_793:in)
Ignoring empty pin current: Ix(u_793:out)
Ignoring empty pin current: Ix(u_794:in)
Ignoring empty pin current: Ix(u_794:out)
Ignoring empty pin current: Ix(u_795:in)
Ignoring empty pin current: Ix(u_795:out)
Ignoring empty pin current: Ix(u_796:in)
Ignoring empty pin current: Ix(u_796:out)
Ignoring empty pin current: Ix(u_797:in)
Ignoring empty pin current: Ix(u_797:out)
Ignoring empty pin current: Ix(u_798:in)
Ignoring empty pin current: Ix(u_798:out)
Ignoring empty pin current: Ix(u_799:in)
Ignoring empty pin current: Ix(u_799:out)
Ignoring empty pin current: Ix(u_800:in)
Ignoring empty pin current: Ix(u_800:out)
Ignoring empty pin current: Ix(u_801:in)
Ignoring empty pin current: Ix(u_801:out)
Ignoring empty pin current: Ix(u_802:in)
Ignoring empty pin current: Ix(u_802:out)
Ignoring empty pin current: Ix(u_803:in)
Ignoring empty pin current: Ix(u_803:out)
Ignoring empty pin current: Ix(u_804:in)
Ignoring empty pin current: Ix(u_804:out)
Ignoring empty pin current: Ix(u_805:in)
Ignoring empty pin current: Ix(u_805:out)
Ignoring empty pin current: Ix(u_806:in)
Ignoring empty pin current: Ix(u_806:out)
Ignoring empty pin current: Ix(u_807:in)
Ignoring empty pin current: Ix(u_807:out)
Ignoring empty pin current: Ix(u_808:in)
Ignoring empty pin current: Ix(u_808:out)
Ignoring empty pin current: Ix(u_809:in)
Ignoring empty pin current: Ix(u_809:out)
Ignoring empty pin current: Ix(u_810:in)
Ignoring empty pin current: Ix(u_810:out)
Ignoring empty pin current: Ix(u_811:in)
Ignoring empty pin current: Ix(u_811:out)
Ignoring empty pin current: Ix(u_812:in)
Ignoring empty pin current: Ix(u_812:out)
Ignoring empty pin current: Ix(u_813:in)
Ignoring empty pin current: Ix(u_813:out)
Ignoring empty pin current: Ix(u_814:in)
Ignoring empty pin current: Ix(u_814:out)
Ignoring empty pin current: Ix(u_815:in)
Ignoring empty pin current: Ix(u_815:out)
Ignoring empty pin current: Ix(u_816:in)
Ignoring empty pin current: Ix(u_816:out)
Ignoring empty pin current: Ix(u_817:in)
Ignoring empty pin current: Ix(u_817:out)
Ignoring empty pin current: Ix(u_818:in)
Ignoring empty pin current: Ix(u_818:out)
Ignoring empty pin current: Ix(u_819:in)
Ignoring empty pin current: Ix(u_819:out)
Ignoring empty pin current: Ix(u_820:in)
Ignoring empty pin current: Ix(u_820:out)
Ignoring empty pin current: Ix(u_821:in)
Ignoring empty pin current: Ix(u_821:out)
Ignoring empty pin current: Ix(u_822:in)
Ignoring empty pin current: Ix(u_822:out)
Ignoring empty pin current: Ix(u_823:in)
Ignoring empty pin current: Ix(u_823:out)
Ignoring empty pin current: Ix(u_824:in)
Ignoring empty pin current: Ix(u_824:out)
Ignoring empty pin current: Ix(u_825:in)
Ignoring empty pin current: Ix(u_825:out)
Ignoring empty pin current: Ix(u_826:in)
Ignoring empty pin current: Ix(u_826:out)
Ignoring empty pin current: Ix(u_827:in)
Ignoring empty pin current: Ix(u_827:out)
Ignoring empty pin current: Ix(u_828:in)
Ignoring empty pin current: Ix(u_828:out)
Ignoring empty pin current: Ix(u_829:in)
Ignoring empty pin current: Ix(u_829:out)
Ignoring empty pin current: Ix(u_830:in)
Ignoring empty pin current: Ix(u_830:out)
Ignoring empty pin current: Ix(u_831:in)
Ignoring empty pin current: Ix(u_831:out)
Ignoring empty pin current: Ix(u_832:in)
Ignoring empty pin current: Ix(u_832:out)
Ignoring empty pin current: Ix(u_833:in)
Ignoring empty pin current: Ix(u_833:out)
Ignoring empty pin current: Ix(u_834:in)
Ignoring empty pin current: Ix(u_834:out)
Ignoring empty pin current: Ix(u_835:in)
Ignoring empty pin current: Ix(u_835:out)
Ignoring empty pin current: Ix(u_836:in)
Ignoring empty pin current: Ix(u_836:out)
Ignoring empty pin current: Ix(u_837:in)
Ignoring empty pin current: Ix(u_837:out)
Ignoring empty pin current: Ix(u_838:in)
Ignoring empty pin current: Ix(u_838:out)
Ignoring empty pin current: Ix(u_839:in)
Ignoring empty pin current: Ix(u_839:out)
Ignoring empty pin current: Ix(u_840:in)
Ignoring empty pin current: Ix(u_840:out)
Ignoring empty pin current: Ix(u_841:in)
Ignoring empty pin current: Ix(u_841:out)
Ignoring empty pin current: Ix(u_842:in)
Ignoring empty pin current: Ix(u_842:out)
Ignoring empty pin current: Ix(u_843:in)
Ignoring empty pin current: Ix(u_843:out)
Ignoring empty pin current: Ix(u_844:in)
Ignoring empty pin current: Ix(u_844:out)
Ignoring empty pin current: Ix(u_845:in)
Ignoring empty pin current: Ix(u_845:out)
Ignoring empty pin current: Ix(u_846:in)
Ignoring empty pin current: Ix(u_846:out)
Ignoring empty pin current: Ix(u_847:in)
Ignoring empty pin current: Ix(u_847:out)
Ignoring empty pin current: Ix(u_848:in)
Ignoring empty pin current: Ix(u_848:out)
Ignoring empty pin current: Ix(u_849:in)
Ignoring empty pin current: Ix(u_849:out)
Ignoring empty pin current: Ix(u_850:in)
Ignoring empty pin current: Ix(u_850:out)
Ignoring empty pin current: Ix(u_851:in)
Ignoring empty pin current: Ix(u_851:out)
Ignoring empty pin current: Ix(u_852:in)
Ignoring empty pin current: Ix(u_852:out)
Ignoring empty pin current: Ix(u_853:in)
Ignoring empty pin current: Ix(u_853:out)
Ignoring empty pin current: Ix(u_854:in)
Ignoring empty pin current: Ix(u_854:out)
Ignoring empty pin current: Ix(u_855:in)
Ignoring empty pin current: Ix(u_855:out)
Ignoring empty pin current: Ix(u_856:in)
Ignoring empty pin current: Ix(u_856:out)
Ignoring empty pin current: Ix(u_857:in)
Ignoring empty pin current: Ix(u_857:out)
Ignoring empty pin current: Ix(u_858:in)
Ignoring empty pin current: Ix(u_858:out)
Ignoring empty pin current: Ix(u_859:in)
Ignoring empty pin current: Ix(u_859:out)
Ignoring empty pin current: Ix(u_860:in)
Ignoring empty pin current: Ix(u_860:out)
Ignoring empty pin current: Ix(u_861:in)
Ignoring empty pin current: Ix(u_861:out)
Ignoring empty pin current: Ix(u_862:in)
Ignoring empty pin current: Ix(u_862:out)
Ignoring empty pin current: Ix(u_863:in)
Ignoring empty pin current: Ix(u_863:out)
Ignoring empty pin current: Ix(u_864:in)
Ignoring empty pin current: Ix(u_864:out)
Ignoring empty pin current: Ix(u_865:in)
Ignoring empty pin current: Ix(u_865:out)
Ignoring empty pin current: Ix(u_866:in)
Ignoring empty pin current: Ix(u_866:out)
Ignoring empty pin current: Ix(u_867:in)
Ignoring empty pin current: Ix(u_867:out)
Ignoring empty pin current: Ix(u_868:in)
Ignoring empty pin current: Ix(u_868:out)
Ignoring empty pin current: Ix(u_869:in)
Ignoring empty pin current: Ix(u_869:out)
Ignoring empty pin current: Ix(u_870:in)
Ignoring empty pin current: Ix(u_870:out)
Ignoring empty pin current: Ix(u_871:in)
Ignoring empty pin current: Ix(u_871:out)
Ignoring empty pin current: Ix(u_872:in)
Ignoring empty pin current: Ix(u_872:out)
Ignoring empty pin current: Ix(u_873:in)
Ignoring empty pin current: Ix(u_873:out)
Ignoring empty pin current: Ix(u_874:in)
Ignoring empty pin current: Ix(u_874:out)
Ignoring empty pin current: Ix(u_875:in)
Ignoring empty pin current: Ix(u_875:out)
Ignoring empty pin current: Ix(u_876:in)
Ignoring empty pin current: Ix(u_876:out)
Ignoring empty pin current: Ix(u_877:in)
Ignoring empty pin current: Ix(u_877:out)
Ignoring empty pin current: Ix(u_878:in)
Ignoring empty pin current: Ix(u_878:out)
Ignoring empty pin current: Ix(u_879:in)
Ignoring empty pin current: Ix(u_879:out)
Ignoring empty pin current: Ix(u_880:in)
Ignoring empty pin current: Ix(u_880:out)
Ignoring empty pin current: Ix(u_881:in)
Ignoring empty pin current: Ix(u_881:out)
Ignoring empty pin current: Ix(u_882:in)
Ignoring empty pin current: Ix(u_882:out)
Ignoring empty pin current: Ix(u_883:in)
Ignoring empty pin current: Ix(u_883:out)
Ignoring empty pin current: Ix(u_884:in)
Ignoring empty pin current: Ix(u_884:out)
Ignoring empty pin current: Ix(u_885:in)
Ignoring empty pin current: Ix(u_885:out)
Ignoring empty pin current: Ix(u_886:in)
Ignoring empty pin current: Ix(u_886:out)
Ignoring empty pin current: Ix(u_887:in)
Ignoring empty pin current: Ix(u_887:out)
Ignoring empty pin current: Ix(u_888:in)
Ignoring empty pin current: Ix(u_888:out)
Ignoring empty pin current: Ix(u_889:in)
Ignoring empty pin current: Ix(u_889:out)
Ignoring empty pin current: Ix(u_890:in)
Ignoring empty pin current: Ix(u_890:out)
Ignoring empty pin current: Ix(u_891:in)
Ignoring empty pin current: Ix(u_891:out)
Ignoring empty pin current: Ix(u_892:in)
Ignoring empty pin current: Ix(u_892:out)
Ignoring empty pin current: Ix(u_893:in)
Ignoring empty pin current: Ix(u_893:out)
Ignoring empty pin current: Ix(u_894:in)
Ignoring empty pin current: Ix(u_894:out)
Ignoring empty pin current: Ix(u_895:in)
Ignoring empty pin current: Ix(u_895:out)
Ignoring empty pin current: Ix(u_896:in)
Ignoring empty pin current: Ix(u_896:out)
Ignoring empty pin current: Ix(u_897:in)
Ignoring empty pin current: Ix(u_897:out)
Ignoring empty pin current: Ix(u_898:in)
Ignoring empty pin current: Ix(u_898:out)
Ignoring empty pin current: Ix(u_899:in)
Ignoring empty pin current: Ix(u_899:out)
Ignoring empty pin current: Ix(u_900:in)
Ignoring empty pin current: Ix(u_900:out)
Ignoring empty pin current: Ix(u_901:in)
Ignoring empty pin current: Ix(u_901:out)
Ignoring empty pin current: Ix(u_902:in)
Ignoring empty pin current: Ix(u_902:out)
Ignoring empty pin current: Ix(u_903:in)
Ignoring empty pin current: Ix(u_903:out)
Ignoring empty pin current: Ix(u_904:in)
Ignoring empty pin current: Ix(u_904:out)
Ignoring empty pin current: Ix(u_905:in)
Ignoring empty pin current: Ix(u_905:out)
Ignoring empty pin current: Ix(u_906:in)
Ignoring empty pin current: Ix(u_906:out)
Ignoring empty pin current: Ix(u_907:in)
Ignoring empty pin current: Ix(u_907:out)
Ignoring empty pin current: Ix(u_908:in)
Ignoring empty pin current: Ix(u_908:out)
Ignoring empty pin current: Ix(u_909:in)
Ignoring empty pin current: Ix(u_909:out)
Ignoring empty pin current: Ix(u_910:in)
Ignoring empty pin current: Ix(u_910:out)
Ignoring empty pin current: Ix(u_911:in)
Ignoring empty pin current: Ix(u_911:out)
Ignoring empty pin current: Ix(u_912:in)
Ignoring empty pin current: Ix(u_912:out)
Ignoring empty pin current: Ix(u_913:in)
Ignoring empty pin current: Ix(u_913:out)
Ignoring empty pin current: Ix(u_914:in)
Ignoring empty pin current: Ix(u_914:out)
Ignoring empty pin current: Ix(u_915:in)
Ignoring empty pin current: Ix(u_915:out)
Ignoring empty pin current: Ix(u_916:in)
Ignoring empty pin current: Ix(u_916:out)
Ignoring empty pin current: Ix(u_917:in)
Ignoring empty pin current: Ix(u_917:out)
Ignoring empty pin current: Ix(u_918:in)
Ignoring empty pin current: Ix(u_918:out)
Ignoring empty pin current: Ix(u_919:in)
Ignoring empty pin current: Ix(u_919:out)
Ignoring empty pin current: Ix(u_920:in)
Ignoring empty pin current: Ix(u_920:out)
Ignoring empty pin current: Ix(u_921:in)
Ignoring empty pin current: Ix(u_921:out)
Ignoring empty pin current: Ix(u_922:in)
Ignoring empty pin current: Ix(u_922:out)
Ignoring empty pin current: Ix(u_923:in)
Ignoring empty pin current: Ix(u_923:out)
Ignoring empty pin current: Ix(u_924:in)
Ignoring empty pin current: Ix(u_924:out)
Ignoring empty pin current: Ix(u_925:in)
Ignoring empty pin current: Ix(u_925:out)
Ignoring empty pin current: Ix(u_926:in)
Ignoring empty pin current: Ix(u_926:out)
Ignoring empty pin current: Ix(u_927:in)
Ignoring empty pin current: Ix(u_927:out)
Ignoring empty pin current: Ix(u_928:in)
Ignoring empty pin current: Ix(u_928:out)
Ignoring empty pin current: Ix(u_929:in)
Ignoring empty pin current: Ix(u_929:out)
Ignoring empty pin current: Ix(u_930:in)
Ignoring empty pin current: Ix(u_930:out)
Ignoring empty pin current: Ix(u_931:in)
Ignoring empty pin current: Ix(u_931:out)
Ignoring empty pin current: Ix(u_932:in)
Ignoring empty pin current: Ix(u_932:out)
Ignoring empty pin current: Ix(u_933:in)
Ignoring empty pin current: Ix(u_933:out)
Ignoring empty pin current: Ix(u_934:in)
Ignoring empty pin current: Ix(u_934:out)
Ignoring empty pin current: Ix(u_935:in)
Ignoring empty pin current: Ix(u_935:out)
Ignoring empty pin current: Ix(u_936:in)
Ignoring empty pin current: Ix(u_936:out)
Ignoring empty pin current: Ix(u_937:in)
Ignoring empty pin current: Ix(u_937:out)
Ignoring empty pin current: Ix(u_938:in)
Ignoring empty pin current: Ix(u_938:out)
Ignoring empty pin current: Ix(u_939:in)
Ignoring empty pin current: Ix(u_939:out)
Ignoring empty pin current: Ix(u_940:in)
Ignoring empty pin current: Ix(u_940:out)
Ignoring empty pin current: Ix(u_941:in)
Ignoring empty pin current: Ix(u_941:out)
Ignoring empty pin current: Ix(u_942:in)
Ignoring empty pin current: Ix(u_942:out)
Ignoring empty pin current: Ix(u_943:in)
Ignoring empty pin current: Ix(u_943:out)
Ignoring empty pin current: Ix(u_944:in)
Ignoring empty pin current: Ix(u_944:out)
Ignoring empty pin current: Ix(u_945:in)
Ignoring empty pin current: Ix(u_945:out)
Ignoring empty pin current: Ix(u_946:in)
Ignoring empty pin current: Ix(u_946:out)
Ignoring empty pin current: Ix(u_947:in)
Ignoring empty pin current: Ix(u_947:out)
Ignoring empty pin current: Ix(u_948:in)
Ignoring empty pin current: Ix(u_948:out)
Ignoring empty pin current: Ix(u_949:in)
Ignoring empty pin current: Ix(u_949:out)
Ignoring empty pin current: Ix(u_950:in)
Ignoring empty pin current: Ix(u_950:out)
Ignoring empty pin current: Ix(u_951:in)
Ignoring empty pin current: Ix(u_951:out)
Ignoring empty pin current: Ix(u_952:in)
Ignoring empty pin current: Ix(u_952:out)
Ignoring empty pin current: Ix(u_953:in)
Ignoring empty pin current: Ix(u_953:out)
Ignoring empty pin current: Ix(u_954:in)
Ignoring empty pin current: Ix(u_954:out)
Ignoring empty pin current: Ix(u_955:in)
Ignoring empty pin current: Ix(u_955:out)
Ignoring empty pin current: Ix(u_956:in)
Ignoring empty pin current: Ix(u_956:out)
Ignoring empty pin current: Ix(u_957:in)
[...]
Ignoring empty pin current: Ix(u_759:out)
Ignoring empty pin current: Ix(u_760:in)
Ignoring empty pin current: Ix(u_760:out)
Ignoring empty pin current: Ix(u_761:in)
Ignoring empty pin current: Ix(u_761:out)
Ignoring empty pin current: Ix(u_762:in)
Ignoring empty pin current: Ix(u_762:out)
Ignoring empty pin current: Ix(u_763:in)
Ignoring empty pin current: Ix(u_763:out)
Ignoring empty pin current: Ix(u_764:in)
Ignoring empty pin current: Ix(u_764:out)
Ignoring empty pin current: Ix(u_765:in)
Ignoring empty pin current: Ix(u_765:out)
Ignoring empty pin current: Ix(u_766:in)
Ignoring empty pin current: Ix(u_766:out)
Ignoring empty pin current: Ix(u_767:in)
Ignoring empty pin current: Ix(u_767:out)
Ignoring empty pin current: Ix(u_768:in)
Ignoring empty pin current: Ix(u_768:out)
Ignoring empty pin current: Ix(u_769:in)
Ignoring empty pin current: Ix(u_769:out)
Ignoring empty pin current: Ix(u_770:in)
Ignoring empty pin current: Ix(u_770:out)
Ignoring empty pin current: Ix(u_771:in)
Ignoring empty pin current: Ix(u_771:out)
Ignoring empty pin current: Ix(u_772:in)
Ignoring empty pin current: Ix(u_772:out)
Ignoring empty pin current: Ix(u_773:in)
Ignoring empty pin current: Ix(u_773:out)
Ignoring empty pin current: Ix(u_774:in)
Ignoring empty pin current: Ix(u_774:out)
Ignoring empty pin current: Ix(u_775:in)
Ignoring empty pin current: Ix(u_775:out)
Ignoring empty pin current: Ix(u_776:in)
Ignoring empty pin current: Ix(u_776:out)
Ignoring empty pin current: Ix(u_777:in)
Ignoring empty pin current: Ix(u_777:out)
Ignoring empty pin current: Ix(u_778:in)
Ignoring empty pin current: Ix(u_778:out)
Ignoring empty pin current: Ix(u_779:in)
Ignoring empty pin current: Ix(u_779:out)
Ignoring empty pin current: Ix(u_780:in)
Ignoring empty pin current: Ix(u_780:out)
Ignoring empty pin current: Ix(u_781:in)
Ignoring empty pin current: Ix(u_781:out)
Ignoring empty pin current: Ix(u_782:in)
Ignoring empty pin current: Ix(u_782:out)
Ignoring empty pin current: Ix(u_783:in)
Ignoring empty pin current: Ix(u_783:out)
Ignoring empty pin current: Ix(u_784:in)
Ignoring empty pin current: Ix(u_784:out)
Ignoring empty pin current: Ix(u_785:in)
Ignoring empty pin current: Ix(u_785:out)
Ignoring empty pin current: Ix(u_786:in)
Ignoring empty pin current: Ix(u_786:out)
Ignoring empty pin current: Ix(u_787:in)
Ignoring empty pin current: Ix(u_787:out)
Ignoring empty pin current: Ix(u_788:in)
Ignoring empty pin current: Ix(u_788:out)
Ignoring empty pin current: Ix(u_789:in)
Ignoring empty pin current: Ix(u_789:out)
Ignoring empty pin current: Ix(u_790:in)
Ignoring empty pin current: Ix(u_790:out)
Ignoring empty pin current: Ix(u_791:in)
Ignoring empty pin current: Ix(u_791:out)
Ignoring empty pin current: Ix(u_792:in)
Ignoring empty pin current: Ix(u_792:out)
Ignoring empty pin current: Ix(u_793:in)
Ignoring empty pin current: Ix(u_793:out)
Ignoring empty pin current: Ix(u_794:in)
Ignoring empty pin current: Ix(u_794:out)
Ignoring empty pin current: Ix(u_795:in)
Ignoring empty pin current: Ix(u_795:out)
Ignoring empty pin current: Ix(u_796:in)
Ignoring empty pin current: Ix(u_796:out)
Ignoring empty pin current: Ix(u_797:in)
Ignoring empty pin current: Ix(u_797:out)
Ignoring empty pin current: Ix(u_798:in)
Ignoring empty pin current: Ix(u_798:out)
Ignoring empty pin current: Ix(u_799:in)
Ignoring empty pin current: Ix(u_799:out)
Ignoring empty pin current: Ix(u_800:in)
Ignoring empty pin current: Ix(u_800:out)
Ignoring empty pin current: Ix(u_801:in)
Ignoring empty pin current: Ix(u_801:out)
Ignoring empty pin current: Ix(u_802:in)
Ignoring empty pin current: Ix(u_802:out)
Ignoring empty pin current: Ix(u_803:in)
Ignoring empty pin current: Ix(u_803:out)
Ignoring empty pin current: Ix(u_804:in)
Ignoring empty pin current: Ix(u_804:out)
Ignoring empty pin current: Ix(u_805:in)
Ignoring empty pin current: Ix(u_805:out)
Ignoring empty pin current: Ix(u_806:in)
Ignoring empty pin current: Ix(u_806:out)
Ignoring empty pin current: Ix(u_807:in)
Ignoring empty pin current: Ix(u_807:out)
Ignoring empty pin current: Ix(u_808:in)
Ignoring empty pin current: Ix(u_808:out)
Ignoring empty pin current: Ix(u_809:in)
Ignoring empty pin current: Ix(u_809:out)
Ignoring empty pin current: Ix(u_810:in)
Ignoring empty pin current: Ix(u_810:out)
Ignoring empty pin current: Ix(u_811:in)
Ignoring empty pin current: Ix(u_811:out)
Ignoring empty pin current: Ix(u_812:in)
Ignoring empty pin current: Ix(u_812:out)
Ignoring empty pin current: Ix(u_813:in)
Ignoring empty pin current: Ix(u_813:out)
Ignoring empty pin current: Ix(u_814:in)
Ignoring empty pin current: Ix(u_814:out)
Ignoring empty pin current: Ix(u_815:in)
Ignoring empty pin current: Ix(u_815:out)
Ignoring empty pin current: Ix(u_816:in)
Ignoring empty pin current: Ix(u_816:out)
Ignoring empty pin current: Ix(u_817:in)
Ignoring empty pin current: Ix(u_817:out)
Ignoring empty pin current: Ix(u_818:in)
Ignoring empty pin current: Ix(u_818:out)
Ignoring empty pin current: Ix(u_819:in)
Ignoring empty pin current: Ix(u_819:out)
Ignoring empty pin current: Ix(u_820:in)
Ignoring empty pin current: Ix(u_820:out)
Ignoring empty pin current: Ix(u_821:in)
Ignoring empty pin current: Ix(u_821:out)
Ignoring empty pin current: Ix(u_822:in)
Ignoring empty pin current: Ix(u_822:out)
Ignoring empty pin current: Ix(u_823:in)
Ignoring empty pin current: Ix(u_823:out)
Ignoring empty pin current: Ix(u_824:in)
Ignoring empty pin current: Ix(u_824:out)
Ignoring empty pin current: Ix(u_825:in)
Ignoring empty pin current: Ix(u_825:out)
Ignoring empty pin current: Ix(u_826:in)
Ignoring empty pin current: Ix(u_826:out)
Ignoring empty pin current: Ix(u_827:in)
Ignoring empty pin current: Ix(u_827:out)
Ignoring empty pin current: Ix(u_828:in)
Ignoring empty pin current: Ix(u_828:out)
Ignoring empty pin current: Ix(u_829:in)
Ignoring empty pin current: Ix(u_829:out)
Ignoring empty pin current: Ix(u_830:in)
Ignoring empty pin current: Ix(u_830:out)
Ignoring empty pin current: Ix(u_831:in)
Ignoring empty pin current: Ix(u_831:out)
Ignoring empty pin current: Ix(u_832:in)
Ignoring empty pin current: Ix(u_832:out)
Ignoring empty pin current: Ix(u_833:in)
Ignoring empty pin current: Ix(u_833:out)
Ignoring empty pin current: Ix(u_834:in)
Ignoring empty pin current: Ix(u_834:out)
Ignoring empty pin current: Ix(u_835:in)
Ignoring empty pin current: Ix(u_835:out)
Ignoring empty pin current: Ix(u_836:in)
Ignoring empty pin current: Ix(u_836:out)
Ignoring empty pin current: Ix(u_837:in)
Ignoring empty pin current: Ix(u_837:out)
Ignoring empty pin current: Ix(u_838:in)
Ignoring empty pin current: Ix(u_838:out)
Ignoring empty pin current: Ix(u_839:in)
Ignoring empty pin current: Ix(u_839:out)
Ignoring empty pin current: Ix(u_840:in)
Ignoring empty pin current: Ix(u_840:out)
Ignoring empty pin current: Ix(u_841:in)
Ignoring empty pin current: Ix(u_841:out)
Ignoring empty pin current: Ix(u_842:in)
Ignoring empty pin current: Ix(u_842:out)
Ignoring empty pin current: Ix(u_843:in)
Ignoring empty pin current: Ix(u_843:out)
Ignoring empty pin current: Ix(u_844:in)
Ignoring empty pin current: Ix(u_844:out)
Ignoring empty pin current: Ix(u_845:in)
Ignoring empty pin current: Ix(u_845:out)
Ignoring empty pin current: Ix(u_846:in)
Ignoring empty pin current: Ix(u_846:out)
Ignoring empty pin current: Ix(u_847:in)
Ignoring empty pin current: Ix(u_847:out)
Ignoring empty pin current: Ix(u_848:in)
Ignoring empty pin current: Ix(u_848:out)
Ignoring empty pin current: Ix(u_849:in)
Ignoring empty pin current: Ix(u_849:out)
Ignoring empty pin current: Ix(u_850:in)
Ignoring empty pin current: Ix(u_850:out)
Ignoring empty pin current: Ix(u_851:in)
Ignoring empty pin current: Ix(u_851:out)
Ignoring empty pin current: Ix(u_852:in)
Ignoring empty pin current: Ix(u_852:out)
Ignoring empty pin current: Ix(u_853:in)
Ignoring empty pin current: Ix(u_853:out)
Ignoring empty pin current: Ix(u_854:in)
Ignoring empty pin current: Ix(u_854:out)
Ignoring empty pin current: Ix(u_855:in)
Ignoring empty pin current: Ix(u_855:out)
Ignoring empty pin current: Ix(u_856:in)
Ignoring empty pin current: Ix(u_856:out)
Ignoring empty pin current: Ix(u_857:in)
Ignoring empty pin current: Ix(u_857:out)
Ignoring empty pin current: Ix(u_858:in)
Ignoring empty pin current: Ix(u_858:out)
Ignoring empty pin current: Ix(u_859:in)
Ignoring empty pin current: Ix(u_859:out)
Ignoring empty pin current: Ix(u_860:in)
Ignoring empty pin current: Ix(u_860:out)
Ignoring empty pin current: Ix(u_861:in)
Ignoring empty pin current: Ix(u_861:out)
Ignoring empty pin current: Ix(u_862:in)
Ignoring empty pin current: Ix(u_862:out)
Ignoring empty pin current: Ix(u_863:in)
Ignoring empty pin current: Ix(u_863:out)
Ignoring empty pin current: Ix(u_864:in)
Ignoring empty pin current: Ix(u_864:out)
Ignoring empty pin current: Ix(u_865:in)
Ignoring empty pin current: Ix(u_865:out)
Ignoring empty pin current: Ix(u_866:in)
Ignoring empty pin current: Ix(u_866:out)
Ignoring empty pin current: Ix(u_867:in)
Ignoring empty pin current: Ix(u_867:out)
Ignoring empty pin current: Ix(u_868:in)
Ignoring empty pin current: Ix(u_868:out)
Ignoring empty pin current: Ix(u_869:in)
Ignoring empty pin current: Ix(u_869:out)
Ignoring empty pin current: Ix(u_870:in)
Ignoring empty pin current: Ix(u_870:out)
Ignoring empty pin current: Ix(u_871:in)
Ignoring empty pin current: Ix(u_871:out)
Ignoring empty pin current: Ix(u_872:in)
Ignoring empty pin current: Ix(u_872:out)
Ignoring empty pin current: Ix(u_873:in)
Ignoring empty pin current: Ix(u_873:out)
Ignoring empty pin current: Ix(u_874:in)
Ignoring empty pin current: Ix(u_874:out)
Ignoring empty pin current: Ix(u_875:in)
Ignoring empty pin current: Ix(u_875:out)
Ignoring empty pin current: Ix(u_876:in)
Ignoring empty pin current: Ix(u_876:out)
Ignoring empty pin current: Ix(u_877:in)
Ignoring empty pin current: Ix(u_877:out)
Ignoring empty pin current: Ix(u_878:in)
Ignoring empty pin current: Ix(u_878:out)
Ignoring empty pin current: Ix(u_879:in)
Ignoring empty pin current: Ix(u_879:out)
Ignoring empty pin current: Ix(u_880:in)
Ignoring empty pin current: Ix(u_880:out)
Ignoring empty pin current: Ix(u_881:in)
Ignoring empty pin current: Ix(u_881:out)
Ignoring empty pin current: Ix(u_882:in)
Ignoring empty pin current: Ix(u_882:out)
Ignoring empty pin current: Ix(u_883:in)
Ignoring empty pin current: Ix(u_883:out)
Ignoring empty pin current: Ix(u_884:in)
Ignoring empty pin current: Ix(u_884:out)
Ignoring empty pin current: Ix(u_885:in)
Ignoring empty pin current: Ix(u_885:out)
Ignoring empty pin current: Ix(u_886:in)
Ignoring empty pin current: Ix(u_886:out)
Ignoring empty pin current: Ix(u_887:in)
Ignoring empty pin current: Ix(u_887:out)
Ignoring empty pin current: Ix(u_888:in)
Ignoring empty pin current: Ix(u_888:out)
Ignoring empty pin current: Ix(u_889:in)
Ignoring empty pin current: Ix(u_889:out)
Ignoring empty pin current: Ix(u_890:in)
Ignoring empty pin current: Ix(u_890:out)
Ignoring empty pin current: Ix(u_891:in)
Ignoring empty pin current: Ix(u_891:out)
Ignoring empty pin current: Ix(u_892:in)
Ignoring empty pin current: Ix(u_892:out)
Ignoring empty pin current: Ix(u_893:in)
Ignoring empty pin current: Ix(u_893:out)
Ignoring empty pin current: Ix(u_894:in)
Ignoring empty pin current: Ix(u_894:out)
Ignoring empty pin current: Ix(u_895:in)
Ignoring empty pin current: Ix(u_895:out)
Ignoring empty pin current: Ix(u_896:in)
Ignoring empty pin current: Ix(u_896:out)
Ignoring empty pin current: Ix(u_897:in)
Ignoring empty pin current: Ix(u_897:out)
Ignoring empty pin current: Ix(u_898:in)
Ignoring empty pin current: Ix(u_898:out)
Ignoring empty pin current: Ix(u_899:in)
Ignoring empty pin current: Ix(u_899:out)
Ignoring empty pin current: Ix(u_900:in)
Ignoring empty pin current: Ix(u_900:out)
Ignoring empty pin current: Ix(u_901:in)
Ignoring empty pin current: Ix(u_901:out)
Ignoring empty pin current: Ix(u_902:in)
Ignoring empty pin current: Ix(u_902:out)
Ignoring empty pin current: Ix(u_903:in)
Ignoring empty pin current: Ix(u_903:out)
Ignoring empty pin current: Ix(u_904:in)
Ignoring empty pin current: Ix(u_904:out)
Ignoring empty pin current: Ix(u_905:in)
Ignoring empty pin current: Ix(u_905:out)
Ignoring empty pin current: Ix(u_906:in)
Ignoring empty pin current: Ix(u_906:out)
Ignoring empty pin current: Ix(u_907:in)
Ignoring empty pin current: Ix(u_907:out)
Ignoring empty pin current: Ix(u_908:in)
Ignoring empty pin current: Ix(u_908:out)
Ignoring empty pin current: Ix(u_909:in)
Ignoring empty pin current: Ix(u_909:out)
Ignoring empty pin current: Ix(u_910:in)
Ignoring empty pin current: Ix(u_910:out)
Ignoring empty pin current: Ix(u_911:in)
Ignoring empty pin current: Ix(u_911:out)
Ignoring empty pin current: Ix(u_912:in)
Ignoring empty pin current: Ix(u_912:out)
Ignoring empty pin current: Ix(u_913:in)
Ignoring empty pin current: Ix(u_913:out)
Ignoring empty pin current: Ix(u_914:in)
Ignoring empty pin current: Ix(u_914:out)
Ignoring empty pin current: Ix(u_915:in)
Ignoring empty pin current: Ix(u_915:out)
Ignoring empty pin current: Ix(u_916:in)
Ignoring empty pin current: Ix(u_916:out)
Ignoring empty pin current: Ix(u_917:in)
Ignoring empty pin current: Ix(u_917:out)
Ignoring empty pin current: Ix(u_918:in)
Ignoring empty pin current: Ix(u_918:out)
Ignoring empty pin current: Ix(u_919:in)
Ignoring empty pin current: Ix(u_919:out)
Ignoring empty pin current: Ix(u_920:in)
Ignoring empty pin current: Ix(u_920:out)
Ignoring empty pin current: Ix(u_921:in)
Ignoring empty pin current: Ix(u_921:out)
Ignoring empty pin current: Ix(u_922:in)
Ignoring empty pin current: Ix(u_922:out)
Ignoring empty pin current: Ix(u_923:in)
Ignoring empty pin current: Ix(u_923:out)
Ignoring empty pin current: Ix(u_924:in)
Ignoring empty pin current: Ix(u_924:out)
Ignoring empty pin current: Ix(u_925:in)
Ignoring empty pin current: Ix(u_925:out)
Ignoring empty pin current: Ix(u_926:in)
Ignoring empty pin current: Ix(u_926:out)
Ignoring empty pin current: Ix(u_927:in)
Ignoring empty pin current: Ix(u_927:out)
Ignoring empty pin current: Ix(u_928:in)
Ignoring empty pin current: Ix(u_928:out)
Ignoring empty pin current: Ix(u_929:in)
Ignoring empty pin current: Ix(u_929:out)
Ignoring empty pin current: Ix(u_930:in)
Ignoring empty pin current: Ix(u_930:out)
Ignoring empty pin current: Ix(u_931:in)
Ignoring empty pin current: Ix(u_931:out)
Ignoring empty pin current: Ix(u_932:in)
Ignoring empty pin current: Ix(u_932:out)
Ignoring empty pin current: Ix(u_933:in)
Ignoring empty pin current: Ix(u_933:out)
Ignoring empty pin current: Ix(u_934:in)
Ignoring empty pin current: Ix(u_934:out)
Ignoring empty pin current: Ix(u_935:in)
Ignoring empty pin current: Ix(u_935:out)
Ignoring empty pin current: Ix(u_936:in)
Ignoring empty pin current: Ix(u_936:out)
Ignoring empty pin current: Ix(u_937:in)
Ignoring empty pin current: Ix(u_937:out)
Ignoring empty pin current: Ix(u_938:in)
Ignoring empty pin current: Ix(u_938:out)
Ignoring empty pin current: Ix(u_939:in)
Ignoring empty pin current: Ix(u_939:out)
Ignoring empty pin current: Ix(u_940:in)
Ignoring empty pin current: Ix(u_940:out)
Ignoring empty pin current: Ix(u_941:in)
Ignoring empty pin current: Ix(u_941:out)
Ignoring empty pin current: Ix(u_942:in)
Ignoring empty pin current: Ix(u_942:out)
Ignoring empty pin current: Ix(u_943:in)
Ignoring empty pin current: Ix(u_943:out)
Ignoring empty pin current: Ix(u_944:in)
Ignoring empty pin current: Ix(u_944:out)
Ignoring empty pin current: Ix(u_945:in)
Ignoring empty pin current: Ix(u_945:out)
Ignoring empty pin current: Ix(u_946:in)
Ignoring empty pin current: Ix(u_946:out)
Ignoring empty pin current: Ix(u_947:in)
Ignoring empty pin current: Ix(u_947:out)
Ignoring empty pin current: Ix(u_948:in)
Ignoring empty pin current: Ix(u_948:out)
Ignoring empty pin current: Ix(u_949:in)
Ignoring empty pin current: Ix(u_949:out)
Ignoring empty pin current: Ix(u_950:in)
Ignoring empty pin current: Ix(u_950:out)
Ignoring empty pin current: Ix(u_951:in)
Ignoring empty pin current: Ix(u_951:out)
Ignoring empty pin current: Ix(u_952:in)
Ignoring empty pin current: Ix(u_952:out)
Ignoring empty pin current: Ix(u_953:in)
Ignoring empty pin current: Ix(u_953:out)
Ignoring empty pin current: Ix(u_954:in)
Ignoring empty pin current: Ix(u_954:out)
Ignoring empty pin current: Ix(u_955:in)
Ignoring empty pin current: Ix(u_955:out)
Ignoring empty pin current: Ix(u_956:in)
Ignoring empty pin current: Ix(u_956:out)
Ignoring empty pin current: Ix(u_957:in)
Ignoring empty pin current: Ix(u_957:out)
Ignoring empty pin current: Ix(u_958:in)
Ignoring empty pin current: Ix(u_958:out)
Ignoring empty pin current: Ix(u_959:in)
Ignoring empty pin current: Ix(u_959:out)
Ignoring empty pin current: Ix(u_960:in)
Ignoring empty pin current: Ix(u_960:out)
Ignoring empty pin current: Ix(u_961:in)
Ignoring empty pin current: Ix(u_961:out)
Ignoring empty pin current: Ix(u_962:in)
Ignoring empty pin current: Ix(u_962:out)
Ignoring empty pin current: Ix(u_963:in)
Ignoring empty pin current: Ix(u_963:out)
Ignoring empty pin current: Ix(u_964:in)
Ignoring empty pin current: Ix(u_964:out)
Ignoring empty pin current: Ix(u_965:in)
Ignoring empty pin current: Ix(u_965:out)
Ignoring empty pin current: Ix(u_966:in)
Ignoring empty pin current: Ix(u_966:out)
Ignoring empty pin current: Ix(u_967:in)
Ignoring empty pin current: Ix(u_967:out)
Ignoring empty pin current: Ix(u_968:in)
Ignoring empty pin current: Ix(u_968:out)
Ignoring empty pin current: Ix(u_969:in)
Ignoring empty pin current: Ix(u_969:out)
Ignoring empty pin current: Ix(u_970:in)
Ignoring empty pin current: Ix(u_970:out)
Ignoring empty pin current: Ix(u_971:in)
Ignoring empty pin current: Ix(u_971:out)
Ignoring empty pin current: Ix(u_972:in)
Ignoring empty pin current: Ix(u_972:out)
Ignoring empty pin current: Ix(u_973:in)
Ignoring empty pin current: Ix(u_973:out)
Ignoring empty pin current: Ix(u_974:in)
Ignoring empty pin current: Ix(u_974:out)
Ignoring empty pin current: Ix(u_975:in)
Ignoring empty pin current: Ix(u_975:out)
Ignoring empty pin current: Ix(u_976:in)
Ignoring empty pin current: Ix(u_976:out)
Ignoring empty pin current: Ix(u_977:in)
Ignoring empty pin current: Ix(u_977:out)
Ignoring empty pin current: Ix(u_978:in)
Ignoring empty pin current: Ix(u_978:out)
Ignoring empty pin current: Ix(u_979:in)
Ignoring empty pin current: Ix(u_979:out)
Ignoring empty pin current: Ix(u_980:in)
Ignoring empty pin current: Ix(u_980:out)
Ignoring empty pin current: Ix(u_981:in)
Ignoring empty pin current: Ix(u_981:out)
Ignoring empty pin current: Ix(u_982:in)
Ignoring empty pin current: Ix(u_982:out)
Ignoring empty pin current: Ix(u_983:in)
Ignoring empty pin current: Ix(u_983:out)
Ignoring empty pin current: Ix(u_984:in)
Ignoring empty pin current: Ix(u_984:out)
Ignoring empty pin current: Ix(u_985:in)
Ignoring empty pin current: Ix(u_985:out)
Ignoring empty pin current: Ix(u_986:in)
Ignoring empty pin current: Ix(u_986:out)
Ignoring empty pin current: Ix(u_987:in)
Ignoring empty pin current: Ix(u_987:out)
Ignoring empty pin current: Ix(u_988:in)
Ignoring empty pin current: Ix(u_988:out)
Ignoring empty pin current: Ix(u_989:in)
Ignoring empty pin current: Ix(u_989:out)
Ignoring empty pin current: Ix(u_990:in)
Ignoring empty pin current: Ix(u_990:out)
Ignoring empty pin current: Ix(u_991:in)
Ignoring empty pin current: Ix(u_991:out)
Ignoring empty pin current: Ix(u_992:in)
Ignoring empty pin current: Ix(u_992:out)
Ignoring empty pin current: Ix(u_993:in)
Ignoring empty pin current: Ix(u_993:out)
Ignoring empty pin current: Ix(u_994:in)
Ignoring empty pin current: Ix(u_994:out)
Ignoring empty pin current: Ix(u_995:in)
Ignoring empty pin current: Ix(u_995:out)
Ignoring empty pin current: Ix(u_996:in)
Ignoring empty pin current: Ix(u_996:out)
Ignoring empty pin current: Ix(u_997:in)
Ignoring empty pin current: Ix(u_997:out)
Ignoring empty pin current: Ix(u_998:in)
Ignoring empty pin current: Ix(u_998:out)
Ignoring empty pin current: Ix(u_999:in)
Ignoring empty pin current: Ix(u_999:out)
Total elapsed time: 23.336 seconds.

