LTspice 24.0.12 for Windows
Circuit: * C:\Users\MBX\Desktop\Investigacion\Spice-LK-Model\Osciladores\Neuron_oscillator_coupled.asc
Start Time: Tue Dec 24 12:21:05 2024
solver = Normal
Maximum thread count: 20
tnom = 27
temp = 27
method = modified trap
Instance "m1": Length shorter than recommended for a level 1 MOSFET.
Instance "m2": Length shorter than recommended for a level 1 MOSFET.
Instance "m3": Length shorter than recommended for a level 1 MOSFET.
Instance "m5": Length shorter than recommended for a level 1 MOSFET.
Instance "m4": Length shorter than recommended for a level 1 MOSFET.
Instance "m4": Width narrower than recommended for a level 1 MOSFET.
Instance "m6": Length shorter than recommended for a level 1 MOSFET.
Instance "m6": Width narrower than recommended for a level 1 MOSFET.
Direct Newton iteration for .op point succeeded.
Total elapsed time: 658.426 seconds.

